MODEL 1
REMARK VINA RESULT:    -6.018      0.000      0.000
REMARK INTER + INTRA:         -10.011
REMARK INTER:                  -9.061
REMARK INTRA:                  -0.950
REMARK UNBOUND:                -0.827
REMARK SMILES CCCOC(=O)C1CS[C@@H]([C@H](C=O)[C@@H](C)OC(C)=O)N1
REMARK SMILES IDX 9 2 8 3 7 4 20 5 10 6 5 7 6 8 4 9 3 10 2 11 1 12 11 13 12 14
REMARK SMILES IDX 13 15 14 16 15 17 16 18 17 19 19 20 18 21
REMARK H PARENT 20 1
REMARK Flexibility Score: inf
ROOT
ATOM      1  H   UNL     1      63.926  23.690   9.641  1.00  0.00     0.124 HD
ATOM      2  S   UNL     1      65.140  20.709   8.742  1.00  0.00    -0.140 SA
ATOM      3  C   UNL     1      64.968  21.026  10.490  1.00  0.00     0.102 C 
ATOM      4  C   UNL     1      64.787  22.324  10.781  1.00  0.00     0.175 C 
ATOM      5  N   UNL     1      64.798  23.180   9.652  1.00  0.00    -0.291 NA
ATOM      6  C   UNL     1      64.954  22.520   8.336  1.00  0.00     0.126 C 
ENDROOT
BRANCH   4   7
ATOM      7  C   UNL     1      64.586  22.852  12.143  1.00  0.00     0.324 C 
ATOM      8  O   UNL     1      63.594  23.355  12.598  1.00  0.00    -0.250 OA
BRANCH   7   9
ATOM      9  O   UNL     1      65.730  22.675  12.780  1.00  0.00    -0.465 OA
BRANCH   9  10
ATOM     10  C   UNL     1      66.861  23.582  12.460  1.00  0.00     0.232 C 
BRANCH  10  11
ATOM     11  C   UNL     1      66.620  25.032  12.690  1.00  0.00     0.038 C 
ATOM     12  C   UNL     1      67.250  25.798  13.375  1.00  0.00     0.007 C 
ENDBRANCH  10  11
ENDBRANCH   9  10
ENDBRANCH   7   9
ENDBRANCH   4   7
BRANCH   6  13
ATOM     13  C   UNL     1      63.647  22.982   7.685  1.00  0.00     0.120 C 
BRANCH  13  14
ATOM     14  C   UNL     1      62.521  22.003   8.059  1.00  0.00     0.234 C 
ATOM     15  O   UNL     1      61.742  22.268   8.980  1.00  0.00    -0.303 OA
ENDBRANCH  13  14
BRANCH  13  16
ATOM     16  C   UNL     1      63.821  22.958   6.242  1.00  0.00     0.186 C 
ATOM     17  C   UNL     1      62.802  22.070   5.594  1.00  0.00     0.054 C 
BRANCH  16  18
ATOM     18  O   UNL     1      63.866  24.326   5.709  1.00  0.00    -0.462 OA
BRANCH  18  19
ATOM     19  C   UNL     1      65.083  24.923   5.445  1.00  0.00     0.302 C 
ATOM     20  O   UNL     1      65.918  25.175   6.283  1.00  0.00    -0.253 OA
ATOM     21  C   UNL     1      65.327  25.195   4.010  1.00  0.00     0.139 C 
ENDBRANCH  18  19
ENDBRANCH  16  18
ENDBRANCH  13  16
ENDBRANCH   6  13
TORSDOF 9
ENDMDL
MODEL 2
REMARK VINA RESULT:    -5.961      3.941      5.923
REMARK INTER + INTRA:          -9.924
REMARK INTER:                  -9.122
REMARK INTRA:                  -0.802
REMARK UNBOUND:                -0.827
REMARK SMILES CCCOC(=O)C1CS[C@@H]([C@H](C=O)[C@@H](C)OC(C)=O)N1
REMARK SMILES IDX 9 2 8 3 7 4 20 5 10 6 5 7 6 8 4 9 3 10 2 11 1 12 11 13 12 14
REMARK SMILES IDX 13 15 14 16 15 17 16 18 17 19 19 20 18 21
REMARK H PARENT 20 1
REMARK Flexibility Score: inf
ROOT
ATOM      1  H   UNL     1      67.241  20.797  12.138  1.00  0.00     0.124 HD
ATOM      2  S   UNL     1      65.282  21.033   9.440  1.00  0.00    -0.140 SA
ATOM      3  C   UNL     1      66.304  19.576   9.581  1.00  0.00     0.102 C 
ATOM      4  C   UNL     1      67.279  19.695  10.497  1.00  0.00     0.175 C 
ATOM      5  N   UNL     1      67.318  20.956  11.143  1.00  0.00    -0.291 NA
ATOM      6  C   UNL     1      66.264  21.920  10.755  1.00  0.00     0.126 C 
ENDROOT
BRANCH   4   7
ATOM      7  C   UNL     1      68.241  18.629  10.834  1.00  0.00     0.324 C 
ATOM      8  O   UNL     1      69.100  18.166  10.132  1.00  0.00    -0.250 OA
BRANCH   7   9
ATOM      9  O   UNL     1      67.970  18.265  12.074  1.00  0.00    -0.465 OA
BRANCH   9  10
ATOM     10  C   UNL     1      69.095  18.153  13.036  1.00  0.00     0.232 C 
BRANCH  10  11
ATOM     11  C   UNL     1      69.377  19.365  13.852  1.00  0.00     0.038 C 
ATOM     12  C   UNL     1      70.281  19.555  14.626  1.00  0.00     0.007 C 
ENDBRANCH  10  11
ENDBRANCH   9  10
ENDBRANCH   7   9
ENDBRANCH   4   7
BRANCH   6  13
ATOM     13  C   UNL     1      65.614  22.123  12.126  1.00  0.00     0.120 C 
BRANCH  13  14
ATOM     14  C   UNL     1      64.181  22.651  11.935  1.00  0.00     0.234 C 
ATOM     15  O   UNL     1      63.814  23.685  12.501  1.00  0.00    -0.303 OA
ENDBRANCH  13  14
BRANCH  13  16
ATOM     16  C   UNL     1      66.381  23.120  12.854  1.00  0.00     0.186 C 
ATOM     17  C   UNL     1      67.284  22.474  13.861  1.00  0.00     0.054 C 
BRANCH  16  18
ATOM     18  O   UNL     1      67.059  24.027  11.919  1.00  0.00    -0.462 OA
BRANCH  18  19
ATOM     19  C   UNL     1      66.935  25.394  12.071  1.00  0.00     0.302 C 
ATOM     20  O   UNL     1      66.464  26.135  11.238  1.00  0.00    -0.253 OA
ATOM     21  C   UNL     1      67.383  25.901  13.388  1.00  0.00     0.139 C 
ENDBRANCH  18  19
ENDBRANCH  16  18
ENDBRANCH  13  16
ENDBRANCH   6  13
TORSDOF 9
ENDMDL
MODEL 3
REMARK VINA RESULT:    -5.903      3.737      6.457
REMARK INTER + INTRA:          -9.835
REMARK INTER:                  -8.735
REMARK INTRA:                  -1.100
REMARK UNBOUND:                -0.827
REMARK SMILES CCCOC(=O)C1CS[C@@H]([C@H](C=O)[C@@H](C)OC(C)=O)N1
REMARK SMILES IDX 9 2 8 3 7 4 20 5 10 6 5 7 6 8 4 9 3 10 2 11 1 12 11 13 12 14
REMARK SMILES IDX 13 15 14 16 15 17 16 18 17 19 19 20 18 21
REMARK H PARENT 20 1
REMARK Flexibility Score: inf
ROOT
ATOM      1  H   UNL     1      66.877  21.267  12.445  1.00  0.00     0.124 HD
ATOM      2  S   UNL     1      65.601  20.118   9.578  1.00  0.00    -0.140 SA
ATOM      3  C   UNL     1      64.934  21.647  10.212  1.00  0.00     0.102 C 
ATOM      4  C   UNL     1      65.254  21.876  11.496  1.00  0.00     0.175 C 
ATOM      5  N   UNL     1      66.026  20.850  12.095  1.00  0.00    -0.291 NA
ATOM      6  C   UNL     1      66.403  19.721  11.215  1.00  0.00     0.126 C 
ENDROOT
BRANCH   4   7
ATOM      7  C   UNL     1      64.858  23.080  12.251  1.00  0.00     0.324 C 
ATOM      8  O   UNL     1      63.757  23.547  12.365  1.00  0.00    -0.250 OA
BRANCH   7   9
ATOM      9  O   UNL     1      65.966  23.564  12.782  1.00  0.00    -0.465 OA
BRANCH   9  10
ATOM     10  C   UNL     1      66.770  24.522  11.981  1.00  0.00     0.232 C 
BRANCH  10  11
ATOM     11  C   UNL     1      66.915  25.888  12.554  1.00  0.00     0.038 C 
ATOM     12  C   UNL     1      67.413  26.214  13.601  1.00  0.00     0.007 C 
ENDBRANCH  10  11
ENDBRANCH   9  10
ENDBRANCH   7   9
ENDBRANCH   4   7
BRANCH   6  13
ATOM     13  C   UNL     1      67.926  19.840  11.319  1.00  0.00     0.120 C 
BRANCH  13  14
ATOM     14  C   UNL     1      68.580  18.867  10.323  1.00  0.00     0.234 C 
ATOM     15  O   UNL     1      69.015  19.275   9.243  1.00  0.00    -0.303 OA
ENDBRANCH  13  14
BRANCH  13  16
ATOM     16  C   UNL     1      68.324  19.462  12.665  1.00  0.00     0.186 C 
ATOM     17  C   UNL     1      69.064  18.158  12.660  1.00  0.00     0.054 C 
BRANCH  16  18
ATOM     18  O   UNL     1      69.040  20.567  13.317  1.00  0.00    -0.462 OA
BRANCH  18  19
ATOM     19  C   UNL     1      68.560  21.097  14.499  1.00  0.00     0.302 C 
ATOM     20  O   UNL     1      67.609  21.840  14.580  1.00  0.00    -0.253 OA
ATOM     21  C   UNL     1      69.282  20.636  15.707  1.00  0.00     0.139 C 
ENDBRANCH  18  19
ENDBRANCH  16  18
ENDBRANCH  13  16
ENDBRANCH   6  13
TORSDOF 9
ENDMDL
MODEL 4
REMARK VINA RESULT:    -5.843      2.443      3.361
REMARK INTER + INTRA:          -9.743
REMARK INTER:                  -8.712
REMARK INTRA:                  -1.032
REMARK UNBOUND:                -0.827
REMARK SMILES CCCOC(=O)C1CS[C@@H]([C@H](C=O)[C@@H](C)OC(C)=O)N1
REMARK SMILES IDX 9 2 8 3 7 4 20 5 10 6 5 7 6 8 4 9 3 10 2 11 1 12 11 13 12 14
REMARK SMILES IDX 13 15 14 16 15 17 16 18 17 19 19 20 18 21
REMARK H PARENT 20 1
REMARK Flexibility Score: inf
ROOT
ATOM      1  H   UNL     1      64.471  21.520   9.896  1.00  0.00     0.124 HD
ATOM      2  S   UNL     1      66.919  19.621  11.150  1.00  0.00    -0.140 SA
ATOM      3  C   UNL     1      66.284  20.925  12.191  1.00  0.00     0.102 C 
ATOM      4  C   UNL     1      65.550  21.830  11.524  1.00  0.00     0.175 C 
ATOM      5  N   UNL     1      65.452  21.586  10.131  1.00  0.00    -0.291 NA
ATOM      6  C   UNL     1      66.120  20.362   9.635  1.00  0.00     0.126 C 
ENDROOT
BRANCH   4   7
ATOM      7  C   UNL     1      64.884  22.987  12.149  1.00  0.00     0.324 C 
ATOM      8  O   UNL     1      63.825  23.474  11.856  1.00  0.00    -0.250 OA
BRANCH   7   9
ATOM      9  O   UNL     1      65.692  23.404  13.108  1.00  0.00    -0.465 OA
BRANCH   9  10
ATOM     10  C   UNL     1      66.539  24.595  12.845  1.00  0.00     0.232 C 
BRANCH  10  11
ATOM     11  C   UNL     1      68.009  24.373  12.895  1.00  0.00     0.038 C 
ATOM     12  C   UNL     1      68.626  23.581  13.561  1.00  0.00     0.007 C 
ENDBRANCH  10  11
ENDBRANCH   9  10
ENDBRANCH   7   9
ENDBRANCH   4   7
BRANCH   6  13
ATOM     13  C   UNL     1      64.899  19.651   9.044  1.00  0.00     0.120 C 
BRANCH  13  14
ATOM     14  C   UNL     1      65.304  18.234   8.599  1.00  0.00     0.234 C 
ATOM     15  O   UNL     1      64.614  17.259   8.910  1.00  0.00    -0.303 OA
ENDBRANCH  13  14
BRANCH  13  16
ATOM     16  C   UNL     1      64.458  20.393   7.875  1.00  0.00     0.186 C 
ATOM     17  C   UNL     1      64.862  19.696   6.612  1.00  0.00     0.054 C 
BRANCH  16  18
ATOM     18  O   UNL     1      63.024  20.697   7.973  1.00  0.00    -0.462 OA
BRANCH  18  19
ATOM     19  C   UNL     1      62.610  21.966   8.329  1.00  0.00     0.302 C 
ATOM     20  O   UNL     1      62.232  22.278   9.436  1.00  0.00    -0.253 OA
ATOM     21  C   UNL     1      62.715  22.965   7.241  1.00  0.00     0.139 C 
ENDBRANCH  18  19
ENDBRANCH  16  18
ENDBRANCH  13  16
ENDBRANCH   6  13
TORSDOF 9
ENDMDL
MODEL 5
REMARK VINA RESULT:    -5.748      3.286      5.946
REMARK INTER + INTRA:          -9.600
REMARK INTER:                  -8.642
REMARK INTRA:                  -0.957
REMARK UNBOUND:                -0.827
REMARK SMILES CCCOC(=O)C1CS[C@@H]([C@H](C=O)[C@@H](C)OC(C)=O)N1
REMARK SMILES IDX 9 2 8 3 7 4 20 5 10 6 5 7 6 8 4 9 3 10 2 11 1 12 11 13 12 14
REMARK SMILES IDX 13 15 14 16 15 17 16 18 17 19 19 20 18 21
REMARK H PARENT 20 1
REMARK Flexibility Score: inf
ROOT
ATOM      1  H   UNL     1      66.337  20.613  11.086  1.00  0.00     0.124 HD
ATOM      2  S   UNL     1      64.319  22.507   9.213  1.00  0.00    -0.140 SA
ATOM      3  C   UNL     1      64.688  20.867   8.612  1.00  0.00     0.102 C 
ATOM      4  C   UNL     1      65.734  20.296   9.231  1.00  0.00     0.175 C 
ATOM      5  N   UNL     1      66.349  21.116  10.210  1.00  0.00    -0.291 NA
ATOM      6  C   UNL     1      65.725  22.439  10.437  1.00  0.00     0.126 C 
ENDROOT
BRANCH   4   7
ATOM      7  C   UNL     1      66.228  18.935   8.948  1.00  0.00     0.324 C 
ATOM      8  O   UNL     1      65.615  18.012   8.484  1.00  0.00    -0.250 OA
BRANCH   7   9
ATOM      9  O   UNL     1      67.496  18.918   9.318  1.00  0.00    -0.465 OA
BRANCH   9  10
ATOM     10  C   UNL     1      67.933  17.880  10.286  1.00  0.00     0.232 C 
BRANCH  10  11
ATOM     11  C   UNL     1      67.154  17.801  11.552  1.00  0.00     0.038 C 
ATOM     12  C   UNL     1      67.382  17.139  12.533  1.00  0.00     0.007 C 
ENDBRANCH  10  11
ENDBRANCH   9  10
ENDBRANCH   7   9
ENDBRANCH   4   7
BRANCH   6  13
ATOM     13  C   UNL     1      65.382  22.285  11.921  1.00  0.00     0.120 C 
BRANCH  13  14
ATOM     14  C   UNL     1      63.967  22.835  12.173  1.00  0.00     0.234 C 
ATOM     15  O   UNL     1      63.797  24.030  12.431  1.00  0.00    -0.303 OA
ENDBRANCH  13  14
BRANCH  13  16
ATOM     16  C   UNL     1      66.328  23.072  12.694  1.00  0.00     0.186 C 
ATOM     17  C   UNL     1      67.222  22.188  13.510  1.00  0.00     0.054 C 
BRANCH  16  18
ATOM     18  O   UNL     1      67.037  24.020  11.824  1.00  0.00    -0.462 OA
BRANCH  18  19
ATOM     19  C   UNL     1      66.946  25.378  12.064  1.00  0.00     0.302 C 
ATOM     20  O   UNL     1      66.427  26.172  11.313  1.00  0.00    -0.253 OA
ATOM     21  C   UNL     1      67.498  25.800  13.371  1.00  0.00     0.139 C 
ENDBRANCH  18  19
ENDBRANCH  16  18
ENDBRANCH  13  16
ENDBRANCH   6  13
TORSDOF 9
ENDMDL
