MODEL 1
REMARK VINA RESULT:    -7.421      0.000      0.000
REMARK INTER + INTRA:         -13.842
REMARK INTER:                 -12.855
REMARK INTRA:                  -0.987
REMARK UNBOUND:                -1.649
REMARK SMILES C[C@H](NS(=O)(=O)O)[C@@H](C=O)NC(=O)[C@H](NOC(C)(C)C(:O):O)c1csc(N)n1
REMARK SMILES IDX 13 1 11 2 12 3 8 4 2 5 1 6 3 7 4 8 7 9 5 10 6 11 9 12 10 13
REMARK SMILES IDX 14 14 15 15 16 16 17 17 18 18 19 19 20 20 21 21 22 22 23 23
REMARK SMILES IDX 28 24 24 25 26 26 25 27 27 28
REMARK H PARENT
REMARK Flexibility Score: inf
ROOT
ATOM      1  O   UNL     1      46.031  36.055  -0.783  1.00  0.00    -0.273 OA
ATOM      2  N   UNL     1      46.966  35.567   1.202  1.00  0.00    -0.343 N 
ATOM      3  C   UNL     1      45.874  35.720   0.395  1.00  0.00     0.246 C 
ENDROOT
BRANCH   2   4
ATOM      4  C   UNL     1      48.316  35.811   0.669  1.00  0.00     0.101 C 
BRANCH   4   5
ATOM      5  C   UNL     1      48.974  36.988   1.331  1.00  0.00     0.048 C 
ATOM      6  C   UNL     1      48.292  38.334   1.220  1.00  0.00    -0.046 C 
BRANCH   5   7
ATOM      7  N   UNL     1      50.431  37.021   1.364  1.00  0.00    -0.187 NA
BRANCH   7   8
ATOM      8  S   UNL     1      51.296  37.512   0.006  1.00  0.00     0.333 S 
ATOM      9  O   UNL     1      52.508  38.305   0.634  1.00  0.00    -0.273 OA
ATOM     10  O   UNL     1      50.424  38.278  -0.965  1.00  0.00    -0.182 OA
ATOM     11  O   UNL     1      51.880  36.194  -0.659  1.00  0.00    -0.182 OA
ENDBRANCH   7   8
ENDBRANCH   5   7
ENDBRANCH   4   5
BRANCH   4  12
ATOM     12  C   UNL     1      49.150  34.618   0.448  1.00  0.00     0.143 C 
ATOM     13  O   UNL     1      49.145  34.020  -0.620  1.00  0.00    -0.301 OA
ENDBRANCH   4  12
ENDBRANCH   2   4
BRANCH   3  14
ATOM     14  C   UNL     1      44.647  35.432   1.169  1.00  0.00     0.153 C 
BRANCH  14  15
ATOM     15  N   UNL     1      44.258  36.091   2.193  1.00  0.00    -0.183 NA
BRANCH  15  16
ATOM     16  O   UNL     1      43.969  37.452   2.086  1.00  0.00    -0.283 OA
BRANCH  16  17
ATOM     17  C   UNL     1      43.994  38.155   3.329  1.00  0.00     0.185 C 
ATOM     18  C   UNL     1      43.601  37.237   4.465  1.00  0.00    -0.023 C 
ATOM     19  C   UNL     1      45.456  38.526   3.635  1.00  0.00    -0.023 C 
BRANCH  17  20
ATOM     20  C   UNL     1      43.099  39.385   3.082  1.00  0.00     0.388 C 
ATOM     21  O   UNL     1      42.009  39.540   3.701  1.00  0.00    -0.244 OA
ATOM     22  O   UNL     1      43.349  40.298   2.290  1.00  0.00    -0.244 OA
ENDBRANCH  17  20
ENDBRANCH  16  17
ENDBRANCH  15  16
ENDBRANCH  14  15
BRANCH  14  23
ATOM     23  C   UNL     1      44.103  34.046   1.286  1.00  0.00     0.082 A 
ATOM     24  N   UNL     1      42.761  33.828   1.466  1.00  0.00    -0.223 NA
ATOM     25  C   UNL     1      44.848  32.897   1.256  1.00  0.00     0.018 A 
ATOM     26  C   UNL     1      42.447  32.556   1.566  1.00  0.00     0.180 A 
ATOM     27  S   UNL     1      43.790  31.596   1.466  1.00  0.00    -0.106 S 
ATOM     28  N   UNL     1      41.194  32.051   1.733  1.00  0.00    -0.375 N 
ENDBRANCH  14  23
ENDBRANCH   3  14
TORSDOF 11
ENDMDL
MODEL 2
REMARK VINA RESULT:    -7.296      3.574      6.977
REMARK INTER + INTRA:         -13.636
REMARK INTER:                 -12.129
REMARK INTRA:                  -1.507
REMARK UNBOUND:                -1.649
REMARK SMILES C[C@H](NS(=O)(=O)O)[C@@H](C=O)NC(=O)[C@H](NOC(C)(C)C(:O):O)c1csc(N)n1
REMARK SMILES IDX 13 1 11 2 12 3 8 4 2 5 1 6 3 7 4 8 7 9 5 10 6 11 9 12 10 13
REMARK SMILES IDX 14 14 15 15 16 16 17 17 18 18 19 19 20 20 21 21 22 22 23 23
REMARK SMILES IDX 28 24 24 25 26 26 25 27 27 28
REMARK H PARENT
REMARK Flexibility Score: inf
ROOT
ATOM      1  O   UNL     1      43.599  36.704   0.420  1.00  0.00    -0.273 OA
ATOM      2  N   UNL     1      45.093  36.397   2.072  1.00  0.00    -0.343 N 
ATOM      3  C   UNL     1      44.589  36.096   0.838  1.00  0.00     0.246 C 
ENDROOT
BRANCH   2   4
ATOM      4  C   UNL     1      44.453  37.435   2.896  1.00  0.00     0.101 C 
BRANCH   4   5
ATOM      5  C   UNL     1      43.945  36.881   4.197  1.00  0.00     0.048 C 
ATOM      6  C   UNL     1      44.580  35.611   4.721  1.00  0.00    -0.046 C 
BRANCH   5   7
ATOM      7  N   UNL     1      42.528  37.047   4.499  1.00  0.00    -0.187 NA
BRANCH   7   8
ATOM      8  S   UNL     1      42.031  38.220   5.599  1.00  0.00     0.333 S 
ATOM      9  O   UNL     1      40.942  37.458   6.451  1.00  0.00    -0.273 OA
ATOM     10  O   UNL     1      41.574  39.482   4.901  1.00  0.00    -0.182 OA
ATOM     11  O   UNL     1      43.271  38.504   6.549  1.00  0.00    -0.182 OA
ENDBRANCH   7   8
ENDBRANCH   5   7
ENDBRANCH   4   5
BRANCH   4  12
ATOM     12  C   UNL     1      45.139  38.737   2.949  1.00  0.00     0.143 C 
ATOM     13  O   UNL     1      44.527  39.790   2.836  1.00  0.00    -0.301 OA
ENDBRANCH   4  12
ENDBRANCH   2   4
BRANCH   3  14
ATOM     14  C   UNL     1      45.398  35.019   0.226  1.00  0.00     0.153 C 
BRANCH  14  15
ATOM     15  N   UNL     1      45.026  33.802   0.110  1.00  0.00    -0.183 NA
BRANCH  15  16
ATOM     16  O   UNL     1      43.669  33.478   0.106  1.00  0.00    -0.283 OA
BRANCH  16  17
ATOM     17  C   UNL     1      43.303  32.476   1.055  1.00  0.00     0.185 C 
ATOM     18  C   UNL     1      42.895  31.201   0.350  1.00  0.00    -0.023 C 
ATOM     19  C   UNL     1      44.568  32.082   1.839  1.00  0.00    -0.023 C 
BRANCH  17  20
ATOM     20  C   UNL     1      42.238  33.161   1.933  1.00  0.00     0.388 C 
ATOM     21  O   UNL     1      41.005  33.040   1.685  1.00  0.00    -0.244 OA
ATOM     22  O   UNL     1      42.476  33.863   2.920  1.00  0.00    -0.244 OA
ENDBRANCH  17  20
ENDBRANCH  16  17
ENDBRANCH  15  16
ENDBRANCH  14  15
BRANCH  14  23
ATOM     23  C   UNL     1      46.891  35.037   0.280  1.00  0.00     0.082 A 
ATOM     24  N   UNL     1      47.614  35.896  -0.507  1.00  0.00    -0.223 NA
ATOM     25  C   UNL     1      47.665  34.219   1.059  1.00  0.00     0.018 A 
ATOM     26  C   UNL     1      48.914  35.776  -0.353  1.00  0.00     0.180 A 
ATOM     27  S   UNL     1      49.282  34.591   0.740  1.00  0.00    -0.106 S 
ATOM     28  N   UNL     1      49.867  36.508  -0.992  1.00  0.00    -0.375 N 
ENDBRANCH  14  23
ENDBRANCH   3  14
TORSDOF 11
ENDMDL
MODEL 3
REMARK VINA RESULT:    -7.054      1.286      1.548
REMARK INTER + INTRA:         -13.238
REMARK INTER:                 -11.902
REMARK INTRA:                  -1.336
REMARK UNBOUND:                -1.649
REMARK SMILES C[C@H](NS(=O)(=O)O)[C@@H](C=O)NC(=O)[C@H](NOC(C)(C)C(:O):O)c1csc(N)n1
REMARK SMILES IDX 13 1 11 2 12 3 8 4 2 5 1 6 3 7 4 8 7 9 5 10 6 11 9 12 10 13
REMARK SMILES IDX 14 14 15 15 16 16 17 17 18 18 19 19 20 20 21 21 22 22 23 23
REMARK SMILES IDX 28 24 24 25 26 26 25 27 27 28
REMARK H PARENT
REMARK Flexibility Score: inf
ROOT
ATOM      1  O   UNL     1      46.130  35.953  -0.824  1.00  0.00    -0.273 OA
ATOM      2  N   UNL     1      46.979  35.801   1.253  1.00  0.00    -0.343 N 
ATOM      3  C   UNL     1      45.929  35.757   0.379  1.00  0.00     0.246 C 
ENDROOT
BRANCH   2   4
ATOM      4  C   UNL     1      48.336  36.089   0.760  1.00  0.00     0.101 C 
BRANCH   4   5
ATOM      5  C   UNL     1      48.924  37.305   1.417  1.00  0.00     0.048 C 
ATOM      6  C   UNL     1      48.500  38.663   0.900  1.00  0.00    -0.046 C 
BRANCH   5   7
ATOM      7  N   UNL     1      50.294  37.218   1.907  1.00  0.00    -0.187 NA
BRANCH   7   8
ATOM      8  S   UNL     1      50.851  38.314   3.058  1.00  0.00     0.333 S 
ATOM      9  O   UNL     1      52.057  37.539   3.719  1.00  0.00    -0.273 OA
ATOM     10  O   UNL     1      49.744  38.754   3.991  1.00  0.00    -0.182 OA
ATOM     11  O   UNL     1      51.453  39.544   2.256  1.00  0.00    -0.182 OA
ENDBRANCH   7   8
ENDBRANCH   5   7
ENDBRANCH   4   5
BRANCH   4  12
ATOM     12  C   UNL     1      49.225  34.926   0.592  1.00  0.00     0.143 C 
ATOM     13  O   UNL     1      49.184  34.226  -0.411  1.00  0.00    -0.301 OA
ENDBRANCH   4  12
ENDBRANCH   2   4
BRANCH   3  14
ATOM     14  C   UNL     1      44.684  35.466   1.122  1.00  0.00     0.153 C 
BRANCH  14  15
ATOM     15  N   UNL     1      44.254  36.141   2.119  1.00  0.00    -0.183 NA
BRANCH  15  16
ATOM     16  O   UNL     1      44.033  37.514   1.997  1.00  0.00    -0.283 OA
BRANCH  16  17
ATOM     17  C   UNL     1      44.153  38.237   3.223  1.00  0.00     0.185 C 
ATOM     18  C   UNL     1      43.933  37.319   4.405  1.00  0.00    -0.023 C 
ATOM     19  C   UNL     1      45.619  38.688   3.366  1.00  0.00    -0.023 C 
BRANCH  17  20
ATOM     20  C   UNL     1      43.174  39.416   3.061  1.00  0.00     0.388 C 
ATOM     21  O   UNL     1      42.112  39.487   3.742  1.00  0.00    -0.244 OA
ATOM     22  O   UNL     1      43.325  40.363   2.284  1.00  0.00    -0.244 OA
ENDBRANCH  17  20
ENDBRANCH  16  17
ENDBRANCH  15  16
ENDBRANCH  14  15
BRANCH  14  23
ATOM     23  C   UNL     1      44.158  34.075   1.254  1.00  0.00     0.082 A 
ATOM     24  N   UNL     1      42.822  33.843   1.463  1.00  0.00    -0.223 NA
ATOM     25  C   UNL     1      44.915  32.934   1.212  1.00  0.00     0.018 A 
ATOM     26  C   UNL     1      42.525  32.567   1.572  1.00  0.00     0.180 A 
ATOM     27  S   UNL     1      43.876  31.622   1.446  1.00  0.00    -0.106 S 
ATOM     28  N   UNL     1      41.282  32.049   1.767  1.00  0.00    -0.375 N 
ENDBRANCH  14  23
ENDBRANCH   3  14
TORSDOF 11
ENDMDL
MODEL 4
REMARK VINA RESULT:    -7.014      2.757      4.564
REMARK INTER + INTRA:         -13.173
REMARK INTER:                 -12.552
REMARK INTRA:                  -0.621
REMARK UNBOUND:                -1.649
REMARK SMILES C[C@H](NS(=O)(=O)O)[C@@H](C=O)NC(=O)[C@H](NOC(C)(C)C(:O):O)c1csc(N)n1
REMARK SMILES IDX 13 1 11 2 12 3 8 4 2 5 1 6 3 7 4 8 7 9 5 10 6 11 9 12 10 13
REMARK SMILES IDX 14 14 15 15 16 16 17 17 18 18 19 19 20 20 21 21 22 22 23 23
REMARK SMILES IDX 28 24 24 25 26 26 25 27 27 28
REMARK H PARENT
REMARK Flexibility Score: inf
ROOT
ATOM      1  O   UNL     1      47.396  34.885   3.061  1.00  0.00    -0.273 OA
ATOM      2  N   UNL     1      46.615  35.494   1.043  1.00  0.00    -0.343 N 
ATOM      3  C   UNL     1      46.424  35.180   2.359  1.00  0.00     0.246 C 
ENDROOT
BRANCH   2   4
ATOM      4  C   UNL     1      47.970  35.471   0.469  1.00  0.00     0.101 C 
BRANCH   4   5
ATOM      5  C   UNL     1      48.790  36.644   0.924  1.00  0.00     0.048 C 
ATOM      6  C   UNL     1      48.178  38.023   0.806  1.00  0.00    -0.046 C 
BRANCH   5   7
ATOM      7  N   UNL     1      50.234  36.578   0.735  1.00  0.00    -0.187 NA
BRANCH   7   8
ATOM      8  S   UNL     1      50.912  36.992  -0.749  1.00  0.00     0.333 S 
ATOM      9  O   UNL     1      51.049  38.560  -0.643  1.00  0.00    -0.273 OA
ATOM     10  O   UNL     1      50.087  36.467  -1.905  1.00  0.00    -0.182 OA
ATOM     11  O   UNL     1      52.377  36.382  -0.764  1.00  0.00    -0.182 OA
ENDBRANCH   7   8
ENDBRANCH   5   7
ENDBRANCH   4   5
BRANCH   4  12
ATOM     12  C   UNL     1      48.640  34.160   0.441  1.00  0.00     0.143 C 
ATOM     13  O   UNL     1      48.967  33.628  -0.612  1.00  0.00    -0.301 OA
ENDBRANCH   4  12
ENDBRANCH   2   4
BRANCH   3  14
ATOM     14  C   UNL     1      44.982  35.264   2.680  1.00  0.00     0.153 C 
BRANCH  14  15
ATOM     15  N   UNL     1      44.051  34.708   2.004  1.00  0.00    -0.183 NA
BRANCH  15  16
ATOM     16  O   UNL     1      43.355  33.617   2.528  1.00  0.00    -0.283 OA
BRANCH  16  17
ATOM     17  C   UNL     1      43.195  32.531   1.614  1.00  0.00     0.185 C 
ATOM     18  C   UNL     1      43.926  32.814   0.320  1.00  0.00    -0.023 C 
ATOM     19  C   UNL     1      43.925  31.308   2.198  1.00  0.00    -0.023 C 
BRANCH  17  20
ATOM     20  C   UNL     1      41.669  32.337   1.526  1.00  0.00     0.388 C 
ATOM     21  O   UNL     1      40.870  33.275   1.803  1.00  0.00    -0.244 OA
ATOM     22  O   UNL     1      41.104  31.291   1.193  1.00  0.00    -0.244 OA
ENDBRANCH  17  20
ENDBRANCH  16  17
ENDBRANCH  15  16
ENDBRANCH  14  15
BRANCH  14  23
ATOM     23  C   UNL     1      44.401  36.459   3.360  1.00  0.00     0.082 A 
ATOM     24  N   UNL     1      44.130  37.607   2.659  1.00  0.00    -0.223 NA
ATOM     25  C   UNL     1      44.113  36.550   4.696  1.00  0.00     0.018 A 
ATOM     26  C   UNL     1      43.637  38.570   3.405  1.00  0.00     0.180 A 
ATOM     27  S   UNL     1      43.515  38.103   4.986  1.00  0.00    -0.106 S 
ATOM     28  N   UNL     1      43.265  39.806   2.973  1.00  0.00    -0.375 N 
ENDBRANCH  14  23
ENDBRANCH   3  14
TORSDOF 11
ENDMDL
MODEL 5
REMARK VINA RESULT:    -7.003      2.456      6.447
REMARK INTER + INTRA:         -13.156
REMARK INTER:                 -11.644
REMARK INTRA:                  -1.512
REMARK UNBOUND:                -1.649
REMARK SMILES C[C@H](NS(=O)(=O)O)[C@@H](C=O)NC(=O)[C@H](NOC(C)(C)C(:O):O)c1csc(N)n1
REMARK SMILES IDX 13 1 11 2 12 3 8 4 2 5 1 6 3 7 4 8 7 9 5 10 6 11 9 12 10 13
REMARK SMILES IDX 14 14 15 15 16 16 17 17 18 18 19 19 20 20 21 21 22 22 23 23
REMARK SMILES IDX 28 24 24 25 26 26 25 27 27 28
REMARK H PARENT
REMARK Flexibility Score: inf
ROOT
ATOM      1  O   UNL     1      43.995  37.198   1.662  1.00  0.00    -0.273 OA
ATOM      2  N   UNL     1      45.369  37.254   3.441  1.00  0.00    -0.343 N 
ATOM      3  C   UNL     1      44.802  36.602   2.382  1.00  0.00     0.246 C 
ENDROOT
BRANCH   2   4
ATOM      4  C   UNL     1      45.009  38.654   3.723  1.00  0.00     0.101 C 
BRANCH   4   5
ATOM      5  C   UNL     1      44.626  38.854   5.162  1.00  0.00     0.048 C 
ATOM      6  C   UNL     1      45.633  39.518   6.076  1.00  0.00    -0.046 C 
BRANCH   5   7
ATOM      7  N   UNL     1      43.779  37.845   5.786  1.00  0.00    -0.187 NA
BRANCH   7   8
ATOM      8  S   UNL     1      42.182  37.656   5.288  1.00  0.00     0.333 S 
ATOM      9  O   UNL     1      42.190  36.218   4.637  1.00  0.00    -0.273 OA
ATOM     10  O   UNL     1      41.738  38.794   4.394  1.00  0.00    -0.182 OA
ATOM     11  O   UNL     1      41.303  37.581   6.607  1.00  0.00    -0.182 OA
ENDBRANCH   7   8
ENDBRANCH   5   7
ENDBRANCH   4   5
BRANCH   4  12
ATOM     12  C   UNL     1      45.870  39.680   3.113  1.00  0.00     0.143 C 
ATOM     13  O   UNL     1      45.414  40.734   2.691  1.00  0.00    -0.301 OA
ENDBRANCH   4  12
ENDBRANCH   2   4
BRANCH   3  14
ATOM     14  C   UNL     1      45.317  35.217   2.327  1.00  0.00     0.153 C 
BRANCH  14  15
ATOM     15  N   UNL     1      46.534  34.898   2.102  1.00  0.00    -0.183 NA
BRANCH  15  16
ATOM     16  O   UNL     1      47.192  35.383   0.971  1.00  0.00    -0.283 OA
BRANCH  16  17
ATOM     17  C   UNL     1      48.466  35.968   1.240  1.00  0.00     0.185 C 
ATOM     18  C   UNL     1      48.365  37.478   1.255  1.00  0.00    -0.023 C 
ATOM     19  C   UNL     1      48.860  35.604   2.683  1.00  0.00    -0.023 C 
BRANCH  17  20
ATOM     20  C   UNL     1      49.398  35.341   0.185  1.00  0.00     0.388 C 
ATOM     21  O   UNL     1      50.533  35.833  -0.066  1.00  0.00    -0.244 OA
ATOM     22  O   UNL     1      49.136  34.340  -0.489  1.00  0.00    -0.244 OA
ENDBRANCH  17  20
ENDBRANCH  16  17
ENDBRANCH  15  16
ENDBRANCH  14  15
BRANCH  14  23
ATOM     23  C   UNL     1      44.458  34.081   1.876  1.00  0.00     0.082 A 
ATOM     24  N   UNL     1      43.149  33.986   2.273  1.00  0.00    -0.223 NA
ATOM     25  C   UNL     1      44.868  33.045   1.079  1.00  0.00     0.018 A 
ATOM     26  C   UNL     1      42.537  32.922   1.804  1.00  0.00     0.180 A 
ATOM     27  S   UNL     1      43.555  32.000   0.884  1.00  0.00    -0.106 S 
ATOM     28  N   UNL     1      41.236  32.585   2.024  1.00  0.00    -0.375 N 
ENDBRANCH  14  23
ENDBRANCH   3  14
TORSDOF 11
ENDMDL
