MODEL 1
REMARK VINA RESULT:    -6.885      0.000      0.000
REMARK INTER + INTRA:          -8.405
REMARK INTER:                  -7.954
REMARK INTRA:                  -0.451
REMARK UNBOUND:                -0.312
REMARK SMILES O=C(Nc1ccc2c(c1)OC(F)(F)O2)Nc1ccc(Cl)c(C(F)(F)F)c1
REMARK SMILES IDX 20 1 16 2 21 3 26 4 17 5 19 6 18 7 22 8 23 9 24 10 25 11
REMARK SMILES IDX 15 12 2 13 1 15 3 16 4 18 9 19 5 20 8 21 6 22 10 23 7 24
REMARK SMILES IDX 11 25 14 26 12 27 13 28
REMARK H PARENT 15 14 3 17
REMARK Flexibility Score: inf
ROOT
ATOM      1  Cl  UNL     1      89.598   7.338  26.439  1.00  0.00    -0.084 Cl
ATOM      2  C   UNL     1      93.368   8.582  24.289  1.00  0.00     0.043 A 
ATOM      3  C   UNL     1      91.283   7.361  24.298  1.00  0.00     0.076 A 
ATOM      4  C   UNL     1      92.450   7.753  23.642  1.00  0.00    -0.025 A 
ATOM      5  C   UNL     1      93.117   9.019  25.589  1.00  0.00    -0.037 A 
ATOM      6  C   UNL     1      91.032   7.799  25.598  1.00  0.00     0.053 A 
ATOM      7  C   UNL     1      91.950   8.628  26.244  1.00  0.00    -0.041 A 
ENDROOT
BRANCH   3   8
ATOM      8  C   UNL     1      90.324   6.475  23.570  1.00  0.00     0.417 C 
ATOM      9  F   UNL     1      89.055   6.975  23.561  1.00  0.00    -0.166 F 
ATOM     10  F   UNL     1      90.652   6.279  22.260  1.00  0.00    -0.166 F 
ATOM     11  F   UNL     1      90.225   5.224  24.106  1.00  0.00    -0.166 F 
ENDBRANCH   3   8
BRANCH   2  12
ATOM     12  N   UNL     1      94.554   8.978  23.625  1.00  0.00    -0.308 N 
ATOM     13  C   UNL     1      95.874   8.598  23.915  1.00  0.00     0.323 C 
ATOM     14  H   UNL     1      94.423   9.615  22.844  1.00  0.00     0.171 HD
ATOM     15  O   UNL     1      96.212   7.840  24.818  1.00  0.00    -0.248 OA
ATOM     16  N   UNL     1      96.766   9.220  23.007  1.00  0.00    -0.308 N 
ATOM     17  H   UNL     1      96.340   9.826  22.310  1.00  0.00     0.171 HD
BRANCH  16  18
ATOM     18  C   UNL     1      98.156   9.115  22.942  1.00  0.00     0.046 A 
ATOM     19  C   UNL     1      98.741   7.915  22.532  1.00  0.00     0.008 A 
ATOM     20  C   UNL     1      98.954  10.218  23.293  1.00  0.00    -0.035 A 
ATOM     21  C   UNL     1     100.119   7.858  22.483  1.00  0.00     0.174 A 
ATOM     22  C   UNL     1     100.347  10.136  23.235  1.00  0.00    -0.014 A 
ATOM     23  O   UNL     1     100.860   6.779  22.109  1.00  0.00    -0.395 OA
ATOM     24  C   UNL     1     100.901   8.939  22.825  1.00  0.00     0.172 A 
ATOM     25  C   UNL     1     102.184   7.313  22.259  1.00  0.00     0.586 C 
ATOM     26  O   UNL     1     102.232   8.674  22.709  1.00  0.00    -0.395 OA
ATOM     27  F   UNL     1     102.823   7.227  21.065  1.00  0.00    -0.125 F 
ATOM     28  F   UNL     1     102.864   6.541  23.143  1.00  0.00    -0.125 F 
ENDBRANCH  16  18
ENDBRANCH   2  12
TORSDOF 3
ENDMDL
MODEL 2
REMARK VINA RESULT:    -6.834      1.862      2.389
REMARK INTER + INTRA:          -8.344
REMARK INTER:                  -7.952
REMARK INTRA:                  -0.393
REMARK UNBOUND:                -0.312
REMARK SMILES O=C(Nc1ccc2c(c1)OC(F)(F)O2)Nc1ccc(Cl)c(C(F)(F)F)c1
REMARK SMILES IDX 20 1 16 2 21 3 26 4 17 5 19 6 18 7 22 8 23 9 24 10 25 11
REMARK SMILES IDX 15 12 2 13 1 15 3 16 4 18 9 19 5 20 8 21 6 22 10 23 7 24
REMARK SMILES IDX 11 25 14 26 12 27 13 28
REMARK H PARENT 15 14 3 17
REMARK Flexibility Score: inf
ROOT
ATOM      1  Cl  UNL     1      88.600   5.945  24.659  1.00  0.00    -0.084 Cl
ATOM      2  C   UNL     1      92.418   8.121  23.628  1.00  0.00     0.043 A 
ATOM      3  C   UNL     1      90.693   7.592  25.233  1.00  0.00     0.076 A 
ATOM      4  C   UNL     1      91.873   8.258  24.905  1.00  0.00    -0.025 A 
ATOM      5  C   UNL     1      91.784   7.317  22.681  1.00  0.00    -0.037 A 
ATOM      6  C   UNL     1      90.059   6.788  24.287  1.00  0.00     0.053 A 
ATOM      7  C   UNL     1      90.605   6.650  23.010  1.00  0.00    -0.041 A 
ENDROOT
BRANCH   3   8
ATOM      8  C   UNL     1      90.142   7.762  26.613  1.00  0.00     0.417 C 
ATOM      9  F   UNL     1      91.042   8.326  27.468  1.00  0.00    -0.166 F 
ATOM     10  F   UNL     1      89.037   8.563  26.661  1.00  0.00    -0.166 F 
ATOM     11  F   UNL     1      89.761   6.590  27.196  1.00  0.00    -0.166 F 
ENDBRANCH   3   8
BRANCH   2  12
ATOM     12  N   UNL     1      93.615   8.800  23.293  1.00  0.00    -0.308 N 
ATOM     13  C   UNL     1      94.905   8.577  23.800  1.00  0.00     0.323 C 
ATOM     14  H   UNL     1      93.518   9.537  22.600  1.00  0.00     0.171 HD
ATOM     15  O   UNL     1      95.202   7.732  24.638  1.00  0.00    -0.248 OA
ATOM     16  N   UNL     1      95.822   9.474  23.199  1.00  0.00    -0.308 N 
ATOM     17  H   UNL     1      95.430  10.121  22.520  1.00  0.00     0.171 HD
BRANCH  16  18
ATOM     18  C   UNL     1      97.195   9.591  23.417  1.00  0.00     0.046 A 
ATOM     19  C   UNL     1      98.051   8.565  23.008  1.00  0.00     0.008 A 
ATOM     20  C   UNL     1      97.705  10.739  24.048  1.00  0.00    -0.035 A 
ATOM     21  C   UNL     1      99.401   8.724  23.243  1.00  0.00     0.174 A 
ATOM     22  C   UNL     1      99.076  10.877  24.275  1.00  0.00    -0.014 A 
ATOM     23  O   UNL     1     100.378   7.835  22.915  1.00  0.00    -0.395 OA
ATOM     24  C   UNL     1      99.900   9.850  23.860  1.00  0.00     0.172 A 
ATOM     25  C   UNL     1     101.534   8.536  23.398  1.00  0.00     0.586 C 
ATOM     26  O   UNL     1     101.254   9.809  23.997  1.00  0.00    -0.395 OA
ATOM     27  F   UNL     1     102.392   8.721  22.364  1.00  0.00    -0.125 F 
ATOM     28  F   UNL     1     102.162   7.755  24.314  1.00  0.00    -0.125 F 
ENDBRANCH  16  18
ENDBRANCH   2  12
TORSDOF 3
ENDMDL
MODEL 3
REMARK VINA RESULT:    -6.816      3.508      9.444
REMARK INTER + INTRA:          -8.324
REMARK INTER:                  -7.760
REMARK INTRA:                  -0.563
REMARK UNBOUND:                -0.312
REMARK SMILES O=C(Nc1ccc2c(c1)OC(F)(F)O2)Nc1ccc(Cl)c(C(F)(F)F)c1
REMARK SMILES IDX 20 1 16 2 21 3 26 4 17 5 19 6 18 7 22 8 23 9 24 10 25 11
REMARK SMILES IDX 15 12 2 13 1 15 3 16 4 18 9 19 5 20 8 21 6 22 10 23 7 24
REMARK SMILES IDX 11 25 14 26 12 27 13 28
REMARK H PARENT 15 14 3 17
REMARK Flexibility Score: inf
ROOT
ATOM      1  Cl  UNL     1     101.915   9.971  21.654  1.00  0.00    -0.084 Cl
ATOM      2  C   UNL     1      97.998   8.986  23.672  1.00  0.00     0.043 A 
ATOM      3  C   UNL     1      99.841   8.312  22.262  1.00  0.00     0.076 A 
ATOM      4  C   UNL     1      98.631   8.017  22.892  1.00  0.00    -0.025 A 
ATOM      5  C   UNL     1      98.576  10.246  23.824  1.00  0.00    -0.037 A 
ATOM      6  C   UNL     1     100.418   9.572  22.414  1.00  0.00     0.053 A 
ATOM      7  C   UNL     1      99.786  10.540  23.196  1.00  0.00    -0.041 A 
ENDROOT
BRANCH   3   8
ATOM      8  C   UNL     1     100.489   7.247  21.437  1.00  0.00     0.417 C 
ATOM      9  F   UNL     1      99.742   6.108  21.375  1.00  0.00    -0.166 F 
ATOM     10  F   UNL     1     100.702   7.619  20.140  1.00  0.00    -0.166 F 
ATOM     11  F   UNL     1     101.711   6.863  21.905  1.00  0.00    -0.166 F 
ENDBRANCH   3   8
BRANCH   2  12
ATOM     12  N   UNL     1      96.770   8.688  24.309  1.00  0.00    -0.308 N 
ATOM     13  C   UNL     1      95.493   8.612  23.730  1.00  0.00     0.323 C 
ATOM     14  H   UNL     1      96.829   8.510  25.308  1.00  0.00     0.171 HD
ATOM     15  O   UNL     1      95.239   8.797  22.544  1.00  0.00    -0.248 OA
ATOM     16  N   UNL     1      94.533   8.287  24.719  1.00  0.00    -0.308 N 
ATOM     17  H   UNL     1      94.891   8.163  25.663  1.00  0.00     0.171 HD
BRANCH  16  18
ATOM     18  C   UNL     1      93.155   8.114  24.572  1.00  0.00     0.046 A 
ATOM     19  C   UNL     1      92.624   6.825  24.488  1.00  0.00     0.008 A 
ATOM     20  C   UNL     1      92.316   9.240  24.508  1.00  0.00    -0.035 A 
ATOM     21  C   UNL     1      91.258   6.704  24.343  1.00  0.00     0.174 A 
ATOM     22  C   UNL     1      90.935   9.091  24.362  1.00  0.00    -0.014 A 
ATOM     23  O   UNL     1      90.566   5.535  24.246  1.00  0.00    -0.395 OA
ATOM     24  C   UNL     1      90.435   7.807  24.282  1.00  0.00     0.172 A 
ATOM     25  C   UNL     1      89.228   6.039  24.117  1.00  0.00     0.586 C 
ATOM     26  O   UNL     1      89.124   7.469  24.139  1.00  0.00    -0.395 OA
ATOM     27  F   UNL     1      88.476   5.533  25.126  1.00  0.00    -0.125 F 
ATOM     28  F   UNL     1      88.705   5.584  22.951  1.00  0.00    -0.125 F 
ENDBRANCH  16  18
ENDBRANCH   2  12
TORSDOF 3
ENDMDL
MODEL 4
REMARK VINA RESULT:    -6.803      3.369      3.584
REMARK INTER + INTRA:          -8.308
REMARK INTER:                  -7.992
REMARK INTRA:                  -0.317
REMARK UNBOUND:                -0.312
REMARK SMILES O=C(Nc1ccc2c(c1)OC(F)(F)O2)Nc1ccc(Cl)c(C(F)(F)F)c1
REMARK SMILES IDX 20 1 16 2 21 3 26 4 17 5 19 6 18 7 22 8 23 9 24 10 25 11
REMARK SMILES IDX 15 12 2 13 1 15 3 16 4 18 9 19 5 20 8 21 6 22 10 23 7 24
REMARK SMILES IDX 11 25 14 26 12 27 13 28
REMARK H PARENT 15 14 3 17
REMARK Flexibility Score: inf
ROOT
ATOM      1  Cl  UNL     1      89.992   9.320  24.818  1.00  0.00    -0.084 Cl
ATOM      2  C   UNL     1      94.197   8.694  26.337  1.00  0.00     0.043 A 
ATOM      3  C   UNL     1      92.230   7.824  25.239  1.00  0.00     0.076 A 
ATOM      4  C   UNL     1      93.530   7.642  25.710  1.00  0.00    -0.025 A 
ATOM      5  C   UNL     1      93.565   9.928  26.491  1.00  0.00    -0.037 A 
ATOM      6  C   UNL     1      91.598   9.057  25.392  1.00  0.00     0.053 A 
ATOM      7  C   UNL     1      92.266  10.110  26.018  1.00  0.00    -0.041 A 
ENDROOT
BRANCH   3   8
ATOM      8  C   UNL     1      91.550   6.672  24.570  1.00  0.00     0.417 C 
ATOM      9  F   UNL     1      90.371   6.342  25.172  1.00  0.00    -0.166 F 
ATOM     10  F   UNL     1      91.242   6.908  23.262  1.00  0.00    -0.166 F 
ATOM     11  F   UNL     1      92.294   5.529  24.564  1.00  0.00    -0.166 F 
ENDBRANCH   3   8
BRANCH   2  12
ATOM     12  N   UNL     1      95.516   8.510  26.818  1.00  0.00    -0.308 N 
ATOM     13  C   UNL     1      96.597   7.900  26.162  1.00  0.00     0.323 C 
ATOM     14  H   UNL     1      95.692   8.865  27.754  1.00  0.00     0.171 HD
ATOM     15  O   UNL     1      96.563   7.420  25.034  1.00  0.00    -0.248 OA
ATOM     16  N   UNL     1      97.742   7.922  26.995  1.00  0.00    -0.308 N 
ATOM     17  H   UNL     1      97.620   8.354  27.908  1.00  0.00     0.171 HD
BRANCH  16  18
ATOM     18  C   UNL     1      99.020   7.426  26.732  1.00  0.00     0.046 A 
ATOM     19  C   UNL     1      99.440   6.239  27.338  1.00  0.00     0.008 A 
ATOM     20  C   UNL     1      99.873   8.127  25.862  1.00  0.00    -0.035 A 
ATOM     21  C   UNL     1     100.711   5.787  27.048  1.00  0.00     0.174 A 
ATOM     22  C   UNL     1     101.156   7.649  25.584  1.00  0.00    -0.014 A 
ATOM     23  O   UNL     1     101.287   4.656  27.540  1.00  0.00    -0.395 OA
ATOM     24  C   UNL     1     101.546   6.473  26.194  1.00  0.00     0.172 A 
ATOM     25  C   UNL     1     102.570   4.722  26.898  1.00  0.00     0.586 C 
ATOM     26  O   UNL     1     102.753   5.860  26.044  1.00  0.00    -0.395 OA
ATOM     27  F   UNL     1     102.744   3.594  26.164  1.00  0.00    -0.125 F 
ATOM     28  F   UNL     1     103.532   4.739  27.854  1.00  0.00    -0.125 F 
ENDBRANCH  16  18
ENDBRANCH   2  12
TORSDOF 3
ENDMDL
MODEL 5
REMARK VINA RESULT:    -6.668      3.962      9.471
REMARK INTER + INTRA:          -8.149
REMARK INTER:                  -7.752
REMARK INTRA:                  -0.397
REMARK UNBOUND:                -0.312
REMARK SMILES O=C(Nc1ccc2c(c1)OC(F)(F)O2)Nc1ccc(Cl)c(C(F)(F)F)c1
REMARK SMILES IDX 20 1 16 2 21 3 26 4 17 5 19 6 18 7 22 8 23 9 24 10 25 11
REMARK SMILES IDX 15 12 2 13 1 15 3 16 4 18 9 19 5 20 8 21 6 22 10 23 7 24
REMARK SMILES IDX 11 25 14 26 12 27 13 28
REMARK H PARENT 15 14 3 17
REMARK Flexibility Score: inf
ROOT
ATOM      1  Cl  UNL     1     102.417   8.165  25.068  1.00  0.00    -0.084 Cl
ATOM      2  C   UNL     1      97.994   8.666  25.821  1.00  0.00     0.043 A 
ATOM      3  C   UNL     1     100.003   7.342  26.028  1.00  0.00     0.076 A 
ATOM      4  C   UNL     1      98.637   7.508  26.258  1.00  0.00    -0.025 A 
ATOM      5  C   UNL     1      98.716   9.658  25.158  1.00  0.00    -0.037 A 
ATOM      6  C   UNL     1     100.725   8.333  25.366  1.00  0.00     0.053 A 
ATOM      7  C   UNL     1     100.082   9.493  24.930  1.00  0.00    -0.041 A 
ENDROOT
BRANCH   3   8
ATOM      8  C   UNL     1     100.657   6.087  26.513  1.00  0.00     0.417 C 
ATOM      9  F   UNL     1     101.739   6.335  27.305  1.00  0.00    -0.166 F 
ATOM     10  F   UNL     1      99.830   5.296  27.257  1.00  0.00    -0.166 F 
ATOM     11  F   UNL     1     101.111   5.286  25.507  1.00  0.00    -0.166 F 
ENDBRANCH   3   8
BRANCH   2  12
ATOM     12  N   UNL     1      96.607   8.834  26.051  1.00  0.00    -0.308 N 
ATOM     13  C   UNL     1      95.538   8.348  25.281  1.00  0.00     0.323 C 
ATOM     14  H   UNL     1      96.365   9.374  26.878  1.00  0.00     0.171 HD
ATOM     15  O   UNL     1      95.648   7.681  24.257  1.00  0.00    -0.248 OA
ATOM     16  N   UNL     1      94.307   8.740  25.861  1.00  0.00    -0.308 N 
ATOM     17  H   UNL     1      94.372   9.293  26.711  1.00  0.00     0.171 HD
BRANCH  16  18
ATOM     18  C   UNL     1      93.011   8.470  25.419  1.00  0.00     0.046 A 
ATOM     19  C   UNL     1      92.625   7.150  25.173  1.00  0.00     0.008 A 
ATOM     20  C   UNL     1      92.107   9.529  25.223  1.00  0.00    -0.035 A 
ATOM     21  C   UNL     1      91.334   6.931  24.737  1.00  0.00     0.174 A 
ATOM     22  C   UNL     1      90.806   9.282  24.782  1.00  0.00    -0.014 A 
ATOM     23  O   UNL     1      90.784   5.720  24.450  1.00  0.00    -0.395 OA
ATOM     24  C   UNL     1      90.448   7.969  24.547  1.00  0.00     0.172 A 
ATOM     25  C   UNL     1      89.462   6.124  24.060  1.00  0.00     0.586 C 
ATOM     26  O   UNL     1      89.230   7.539  24.116  1.00  0.00    -0.395 OA
ATOM     27  F   UNL     1      88.564   5.504  24.866  1.00  0.00    -0.125 F 
ATOM     28  F   UNL     1      89.235   5.698  22.792  1.00  0.00    -0.125 F 
ENDBRANCH  16  18
ENDBRANCH   2  12
TORSDOF 3
ENDMDL
MODEL 6
REMARK VINA RESULT:    -6.502     19.136     20.209
REMARK INTER + INTRA:          -7.954
REMARK INTER:                  -7.737
REMARK INTRA:                  -0.217
REMARK UNBOUND:                -0.312
REMARK SMILES O=C(Nc1ccc2c(c1)OC(F)(F)O2)Nc1ccc(Cl)c(C(F)(F)F)c1
REMARK SMILES IDX 20 1 16 2 21 3 26 4 17 5 19 6 18 7 22 8 23 9 24 10 25 11
REMARK SMILES IDX 15 12 2 13 1 15 3 16 4 18 9 19 5 20 8 21 6 22 10 23 7 24
REMARK SMILES IDX 11 25 14 26 12 27 13 28
REMARK H PARENT 15 14 3 17
REMARK Flexibility Score: inf
ROOT
ATOM      1  Cl  UNL     1      89.336 -15.736  20.659  1.00  0.00    -0.084 Cl
ATOM      2  C   UNL     1      92.510 -13.532  22.994  1.00  0.00     0.043 A 
ATOM      3  C   UNL     1      90.178 -13.882  22.469  1.00  0.00     0.076 A 
ATOM      4  C   UNL     1      91.167 -13.208  23.187  1.00  0.00    -0.025 A 
ATOM      5  C   UNL     1      92.864 -14.529  22.085  1.00  0.00    -0.037 A 
ATOM      6  C   UNL     1      90.532 -14.879  21.561  1.00  0.00     0.053 A 
ATOM      7  C   UNL     1      91.875 -15.204  21.369  1.00  0.00    -0.041 A 
ENDROOT
BRANCH   3   8
ATOM      8  C   UNL     1      88.750 -13.508  22.706  1.00  0.00     0.417 C 
ATOM      9  F   UNL     1      88.603 -12.649  23.755  1.00  0.00    -0.166 F 
ATOM     10  F   UNL     1      88.167 -12.888  21.638  1.00  0.00    -0.166 F 
ATOM     11  F   UNL     1      87.947 -14.574  22.985  1.00  0.00    -0.166 F 
ENDBRANCH   3   8
BRANCH   2  12
ATOM     12  N   UNL     1      93.514 -12.847  23.720  1.00  0.00    -0.308 N 
ATOM     13  C   UNL     1      94.768 -12.413  23.261  1.00  0.00     0.323 C 
ATOM     14  H   UNL     1      93.291 -12.650  24.692  1.00  0.00     0.171 HD
ATOM     15  O   UNL     1      95.198 -12.566  22.122  1.00  0.00    -0.248 OA
ATOM     16  N   UNL     1      95.468 -11.767  24.309  1.00  0.00    -0.308 N 
ATOM     17  H   UNL     1      94.984 -11.715  25.202  1.00  0.00     0.171 HD
BRANCH  16  18
ATOM     18  C   UNL     1      96.740 -11.192  24.281  1.00  0.00     0.046 A 
ATOM     19  C   UNL     1      96.942  -9.994  23.592  1.00  0.00     0.008 A 
ATOM     20  C   UNL     1      97.805 -11.825  24.945  1.00  0.00    -0.035 A 
ATOM     21  C   UNL     1      98.215  -9.462  23.592  1.00  0.00     0.174 A 
ATOM     22  C   UNL     1      99.085 -11.267  24.931  1.00  0.00    -0.014 A 
ATOM     23  O   UNL     1      98.598  -8.309  22.979  1.00  0.00    -0.395 OA
ATOM     24  C   UNL     1      99.259 -10.081  24.244  1.00  0.00     0.172 A 
ATOM     25  C   UNL     1      99.992  -8.286  23.323  1.00  0.00     0.586 C 
ATOM     26  O   UNL     1     100.428  -9.395  24.121  1.00  0.00    -0.395 OA
ATOM     27  F   UNL     1     100.254  -7.137  23.995  1.00  0.00    -0.125 F 
ATOM     28  F   UNL     1     100.720  -8.264  22.178  1.00  0.00    -0.125 F 
ENDBRANCH  16  18
ENDBRANCH   2  12
TORSDOF 3
ENDMDL
MODEL 7
REMARK VINA RESULT:    -6.352     19.630     22.149
REMARK INTER + INTRA:          -7.778
REMARK INTER:                  -7.467
REMARK INTRA:                  -0.312
REMARK UNBOUND:                -0.312
REMARK SMILES O=C(Nc1ccc2c(c1)OC(F)(F)O2)Nc1ccc(Cl)c(C(F)(F)F)c1
REMARK SMILES IDX 20 1 16 2 21 3 26 4 17 5 19 6 18 7 22 8 23 9 24 10 25 11
REMARK SMILES IDX 15 12 2 13 1 15 3 16 4 18 9 19 5 20 8 21 6 22 10 23 7 24
REMARK SMILES IDX 11 25 14 26 12 27 13 28
REMARK H PARENT 15 14 3 17
REMARK Flexibility Score: inf
ROOT
ATOM      1  Cl  UNL     1     101.600 -10.358  24.294  1.00  0.00    -0.084 Cl
ATOM      2  C   UNL     1      97.356 -11.886  24.488  1.00  0.00     0.043 A 
ATOM      3  C   UNL     1      98.916 -10.144  23.880  1.00  0.00     0.076 A 
ATOM      4  C   UNL     1      97.608 -10.626  23.943  1.00  0.00    -0.025 A 
ATOM      5  C   UNL     1      98.411 -12.662  24.968  1.00  0.00    -0.037 A 
ATOM      6  C   UNL     1      99.970 -10.920  24.359  1.00  0.00     0.053 A 
ATOM      7  C   UNL     1      99.718 -12.180  24.903  1.00  0.00    -0.041 A 
ENDROOT
BRANCH   3   8
ATOM      8  C   UNL     1      99.145  -8.791  23.286  1.00  0.00     0.417 C 
ATOM      9  F   UNL     1     100.060  -8.812  22.276  1.00  0.00    -0.166 F 
ATOM     10  F   UNL     1      98.019  -8.234  22.751  1.00  0.00    -0.166 F 
ATOM     11  F   UNL     1      99.607  -7.874  24.184  1.00  0.00    -0.166 F 
ENDBRANCH   3   8
BRANCH   2  12
ATOM     12  N   UNL     1      96.029 -12.375  24.555  1.00  0.00    -0.308 N 
ATOM     13  C   UNL     1      95.135 -12.594  23.495  1.00  0.00     0.323 C 
ATOM     14  H   UNL     1      95.691 -12.590  25.489  1.00  0.00     0.171 HD
ATOM     15  O   UNL     1      95.376 -12.389  22.310  1.00  0.00    -0.248 OA
ATOM     16  N   UNL     1      93.907 -13.091  23.995  1.00  0.00    -0.308 N 
ATOM     17  H   UNL     1      93.852 -13.210  25.003  1.00  0.00     0.171 HD
BRANCH  16  18
ATOM     18  C   UNL     1      92.756 -13.439  23.286  1.00  0.00     0.046 A 
ATOM     19  C   UNL     1      91.539 -12.827  23.598  1.00  0.00     0.008 A 
ATOM     20  C   UNL     1      92.831 -14.404  22.267  1.00  0.00    -0.035 A 
ATOM     21  C   UNL     1      90.429 -13.203  22.871  1.00  0.00     0.174 A 
ATOM     22  C   UNL     1      91.692 -14.768  21.545  1.00  0.00    -0.014 A 
ATOM     23  O   UNL     1      89.167 -12.717  23.032  1.00  0.00    -0.395 OA
ATOM     24  C   UNL     1      90.503 -14.148  21.871  1.00  0.00     0.172 A 
ATOM     25  C   UNL     1      88.472 -13.466  22.024  1.00  0.00     0.586 C 
ATOM     26  O   UNL     1      89.297 -14.374  21.280  1.00  0.00    -0.395 OA
ATOM     27  F   UNL     1      87.894 -12.595  21.159  1.00  0.00    -0.125 F 
ATOM     28  F   UNL     1      87.478 -14.172  22.618  1.00  0.00    -0.125 F 
ENDBRANCH  16  18
ENDBRANCH   2  12
TORSDOF 3
ENDMDL
MODEL 8
REMARK VINA RESULT:    -6.312      6.974      7.640
REMARK INTER + INTRA:          -7.731
REMARK INTER:                  -7.353
REMARK INTRA:                  -0.378
REMARK UNBOUND:                -0.312
REMARK SMILES O=C(Nc1ccc2c(c1)OC(F)(F)O2)Nc1ccc(Cl)c(C(F)(F)F)c1
REMARK SMILES IDX 20 1 16 2 21 3 26 4 17 5 19 6 18 7 22 8 23 9 24 10 25 11
REMARK SMILES IDX 15 12 2 13 1 15 3 16 4 18 9 19 5 20 8 21 6 22 10 23 7 24
REMARK SMILES IDX 11 25 14 26 12 27 13 28
REMARK H PARENT 15 14 3 17
REMARK Flexibility Score: inf
ROOT
ATOM      1  Cl  UNL     1      94.255   7.871  25.657  1.00  0.00    -0.084 Cl
ATOM      2  C   UNL     1      95.169   9.331  21.484  1.00  0.00     0.043 A 
ATOM      3  C   UNL     1      93.681   8.198  23.014  1.00  0.00     0.076 A 
ATOM      4  C   UNL     1      93.973   8.656  21.728  1.00  0.00    -0.025 A 
ATOM      5  C   UNL     1      96.071   9.550  22.524  1.00  0.00    -0.037 A 
ATOM      6  C   UNL     1      94.583   8.418  24.054  1.00  0.00     0.053 A 
ATOM      7  C   UNL     1      95.779   9.095  23.810  1.00  0.00    -0.041 A 
ENDROOT
BRANCH   3   8
ATOM      8  C   UNL     1      92.388   7.481  23.235  1.00  0.00     0.417 C 
ATOM      9  F   UNL     1      91.752   7.179  22.067  1.00  0.00    -0.166 F 
ATOM     10  F   UNL     1      92.532   6.294  23.894  1.00  0.00    -0.166 F 
ATOM     11  F   UNL     1      91.489   8.194  23.972  1.00  0.00    -0.166 F 
ENDBRANCH   3   8
BRANCH   2  12
ATOM     12  N   UNL     1      95.466   9.793  20.179  1.00  0.00    -0.308 N 
ATOM     13  C   UNL     1      95.641  11.119  19.751  1.00  0.00     0.323 C 
ATOM     14  H   UNL     1      95.563   9.069  19.472  1.00  0.00     0.171 HD
ATOM     15  O   UNL     1      95.560  12.112  20.467  1.00  0.00    -0.248 OA
ATOM     16  N   UNL     1      95.927  11.144  18.364  1.00  0.00    -0.308 N 
ATOM     17  H   UNL     1      95.962  10.240  17.900  1.00  0.00     0.171 HD
BRANCH  16  18
ATOM     18  C   UNL     1      96.168  12.249  17.545  1.00  0.00     0.046 A 
ATOM     19  C   UNL     1      95.250  12.584  16.548  1.00  0.00     0.008 A 
ATOM     20  C   UNL     1      97.334  13.012  17.731  1.00  0.00    -0.035 A 
ATOM     21  C   UNL     1      95.530  13.683  15.763  1.00  0.00     0.174 A 
ATOM     22  C   UNL     1      97.595  14.121  16.924  1.00  0.00    -0.014 A 
ATOM     23  O   UNL     1      94.755  14.158  14.749  1.00  0.00    -0.395 OA
ATOM     24  C   UNL     1      96.671  14.432  15.946  1.00  0.00     0.172 A 
ATOM     25  C   UNL     1      95.545  15.280  14.326  1.00  0.00     0.586 C 
ATOM     26  O   UNL     1      96.757  15.471  15.069  1.00  0.00    -0.395 OA
ATOM     27  F   UNL     1      94.791  16.403  14.428  1.00  0.00    -0.125 F 
ATOM     28  F   UNL     1      95.861  15.118  13.017  1.00  0.00    -0.125 F 
ENDBRANCH  16  18
ENDBRANCH   2  12
TORSDOF 3
ENDMDL
MODEL 9
REMARK VINA RESULT:    -6.169      4.069      9.680
REMARK INTER + INTRA:          -7.563
REMARK INTER:                  -7.030
REMARK INTRA:                  -0.532
REMARK UNBOUND:                -0.312
REMARK SMILES O=C(Nc1ccc2c(c1)OC(F)(F)O2)Nc1ccc(Cl)c(C(F)(F)F)c1
REMARK SMILES IDX 20 1 16 2 21 3 26 4 17 5 19 6 18 7 22 8 23 9 24 10 25 11
REMARK SMILES IDX 15 12 2 13 1 15 3 16 4 18 9 19 5 20 8 21 6 22 10 23 7 24
REMARK SMILES IDX 11 25 14 26 12 27 13 28
REMARK H PARENT 15 14 3 17
REMARK Flexibility Score: inf
ROOT
ATOM      1  Cl  UNL     1     101.787  10.071  21.240  1.00  0.00    -0.084 Cl
ATOM      2  C   UNL     1      97.965   8.947  23.363  1.00  0.00     0.043 A 
ATOM      3  C   UNL     1      99.524  10.646  22.644  1.00  0.00     0.076 A 
ATOM      4  C   UNL     1      98.344  10.288  23.296  1.00  0.00    -0.025 A 
ATOM      5  C   UNL     1      98.765   7.966  22.778  1.00  0.00    -0.037 A 
ATOM      6  C   UNL     1     100.323   9.665  22.059  1.00  0.00     0.053 A 
ATOM      7  C   UNL     1      99.944   8.324  22.125  1.00  0.00    -0.041 A 
ENDROOT
BRANCH   3   8
ATOM      8  C   UNL     1      99.894  12.094  22.591  1.00  0.00     0.417 C 
ATOM      9  F   UNL     1     101.084  12.351  23.206  1.00  0.00    -0.166 F 
ATOM     10  F   UNL     1     100.025  12.575  21.320  1.00  0.00    -0.166 F 
ATOM     11  F   UNL     1      98.983  12.911  23.192  1.00  0.00    -0.166 F 
ENDBRANCH   3   8
BRANCH   2  12
ATOM     12  N   UNL     1      96.769   8.582  24.027  1.00  0.00    -0.308 N 
ATOM     13  C   UNL     1      95.461   8.591  23.517  1.00  0.00     0.323 C 
ATOM     14  H   UNL     1      96.881   8.279  24.991  1.00  0.00     0.171 HD
ATOM     15  O   UNL     1      95.145   8.925  22.380  1.00  0.00    -0.248 OA
ATOM     16  N   UNL     1      94.552   8.152  24.511  1.00  0.00    -0.308 N 
ATOM     17  H   UNL     1      94.960   7.907  25.410  1.00  0.00     0.171 HD
BRANCH  16  18
ATOM     18  C   UNL     1      93.166   8.011  24.422  1.00  0.00     0.046 A 
ATOM     19  C   UNL     1      92.601   6.735  24.387  1.00  0.00     0.008 A 
ATOM     20  C   UNL     1      92.353   9.157  24.368  1.00  0.00    -0.035 A 
ATOM     21  C   UNL     1      91.227   6.645  24.300  1.00  0.00     0.174 A 
ATOM     22  C   UNL     1      90.964   9.040  24.280  1.00  0.00    -0.014 A 
ATOM     23  O   UNL     1      90.504   5.492  24.255  1.00  0.00    -0.395 OA
ATOM     24  C   UNL     1      90.429   7.767  24.248  1.00  0.00     0.172 A 
ATOM     25  C   UNL     1      89.174   6.027  24.168  1.00  0.00     0.586 C 
ATOM     26  O   UNL     1      89.106   7.460  24.163  1.00  0.00    -0.395 OA
ATOM     27  F   UNL     1      88.451   5.561  25.217  1.00  0.00    -0.125 F 
ATOM     28  F   UNL     1      88.594   5.561  23.034  1.00  0.00    -0.125 F 
ENDBRANCH  16  18
ENDBRANCH   2  12
TORSDOF 3
ENDMDL
MODEL 10
REMARK VINA RESULT:    -6.118     12.230     15.247
REMARK INTER + INTRA:          -7.503
REMARK INTER:                  -6.946
REMARK INTRA:                  -0.557
REMARK UNBOUND:                -0.312
REMARK SMILES O=C(Nc1ccc2c(c1)OC(F)(F)O2)Nc1ccc(Cl)c(C(F)(F)F)c1
REMARK SMILES IDX 20 1 16 2 21 3 26 4 17 5 19 6 18 7 22 8 23 9 24 10 25 11
REMARK SMILES IDX 15 12 2 13 1 15 3 16 4 18 9 19 5 20 8 21 6 22 10 23 7 24
REMARK SMILES IDX 11 25 14 26 12 27 13 28
REMARK H PARENT 15 14 3 17
REMARK Flexibility Score: inf
ROOT
ATOM      1  Cl  UNL     1      96.475   9.219  14.591  1.00  0.00    -0.084 Cl
ATOM      2  C   UNL     1      92.330   8.330  13.039  1.00  0.00     0.043 A 
ATOM      3  C   UNL     1      93.798   8.813  14.895  1.00  0.00     0.076 A 
ATOM      4  C   UNL     1      92.521   8.539  14.405  1.00  0.00    -0.025 A 
ATOM      5  C   UNL     1      93.414   8.396  12.165  1.00  0.00    -0.037 A 
ATOM      6  C   UNL     1      94.882   8.879  14.021  1.00  0.00     0.053 A 
ATOM      7  C   UNL     1      94.691   8.671  12.655  1.00  0.00    -0.041 A 
ENDROOT
BRANCH   3   8
ATOM      8  C   UNL     1      93.961   9.033  16.365  1.00  0.00     0.417 C 
ATOM      9  F   UNL     1      94.417  10.285  16.658  1.00  0.00    -0.166 F 
ATOM     10  F   UNL     1      92.800   8.891  17.068  1.00  0.00    -0.166 F 
ATOM     11  F   UNL     1      94.843   8.173  16.950  1.00  0.00    -0.166 F 
ENDBRANCH   3   8
BRANCH   2  12
ATOM     12  N   UNL     1      91.035   8.050  12.541  1.00  0.00    -0.308 N 
ATOM     13  C   UNL     1      90.520   6.813  12.119  1.00  0.00     0.323 C 
ATOM     14  H   UNL     1      90.408   8.848  12.485  1.00  0.00     0.171 HD
ATOM     15  O   UNL     1      91.135   5.752  12.119  1.00  0.00    -0.248 OA
ATOM     16  N   UNL     1      89.179   6.969  11.692  1.00  0.00    -0.308 N 
ATOM     17  H   UNL     1      88.800   7.911  11.749  1.00  0.00     0.171 HD
BRANCH  16  18
ATOM     18  C   UNL     1      88.303   5.999  11.201  1.00  0.00     0.046 A 
ATOM     19  C   UNL     1      87.612   5.176  12.093  1.00  0.00     0.008 A 
ATOM     20  C   UNL     1      88.128   5.859   9.813  1.00  0.00    -0.035 A 
ATOM     21  C   UNL     1      86.757   4.232  11.561  1.00  0.00     0.174 A 
ATOM     22  C   UNL     1      87.257   4.896   9.300  1.00  0.00    -0.014 A 
ATOM     23  O   UNL     1      86.004   3.348  12.271  1.00  0.00    -0.395 OA
ATOM     24  C   UNL     1      86.584   4.095  10.201  1.00  0.00     0.172 A 
ATOM     25  C   UNL     1      85.348   2.651  11.201  1.00  0.00     0.586 C 
ATOM     26  O   UNL     1      85.700   3.108   9.887  1.00  0.00    -0.395 OA
ATOM     27  F   UNL     1      84.007   2.776  11.360  1.00  0.00    -0.125 F 
ATOM     28  F   UNL     1      85.649   1.332  11.295  1.00  0.00    -0.125 F 
ENDBRANCH  16  18
ENDBRANCH   2  12
TORSDOF 3
ENDMDL
MODEL 11
REMARK VINA RESULT:    -6.111     18.383     19.367
REMARK INTER + INTRA:          -7.495
REMARK INTER:                  -7.045
REMARK INTRA:                  -0.449
REMARK UNBOUND:                -0.312
REMARK SMILES O=C(Nc1ccc2c(c1)OC(F)(F)O2)Nc1ccc(Cl)c(C(F)(F)F)c1
REMARK SMILES IDX 20 1 16 2 21 3 26 4 17 5 19 6 18 7 22 8 23 9 24 10 25 11
REMARK SMILES IDX 15 12 2 13 1 15 3 16 4 18 9 19 5 20 8 21 6 22 10 23 7 24
REMARK SMILES IDX 11 25 14 26 12 27 13 28
REMARK H PARENT 15 14 3 17
REMARK Flexibility Score: inf
ROOT
ATOM      1  Cl  UNL     1      91.329 -15.414  21.143  1.00  0.00    -0.084 Cl
ATOM      2  C   UNL     1      95.013 -13.480  22.894  1.00  0.00     0.043 A 
ATOM      3  C   UNL     1      92.606 -13.634  22.762  1.00  0.00     0.076 A 
ATOM      4  C   UNL     1      93.751 -13.044  23.298  1.00  0.00    -0.025 A 
ATOM      5  C   UNL     1      95.130 -14.505  21.956  1.00  0.00    -0.037 A 
ATOM      6  C   UNL     1      92.722 -14.659  21.824  1.00  0.00     0.053 A 
ATOM      7  C   UNL     1      93.985 -15.096  21.421  1.00  0.00    -0.041 A 
ENDROOT
BRANCH   3   8
ATOM      8  C   UNL     1      91.271 -13.140  23.222  1.00  0.00     0.417 C 
ATOM      9  F   UNL     1      90.493 -12.704  22.191  1.00  0.00    -0.166 F 
ATOM     10  F   UNL     1      90.532 -14.091  23.865  1.00  0.00    -0.166 F 
ATOM     11  F   UNL     1      91.349 -12.095  24.095  1.00  0.00    -0.166 F 
ENDBRANCH   3   8
BRANCH   2  12
ATOM     12  N   UNL     1      96.175 -12.880  23.436  1.00  0.00    -0.308 N 
ATOM     13  C   UNL     1      96.604 -11.550  23.302  1.00  0.00     0.323 C 
ATOM     14  H   UNL     1      96.766 -13.496  23.988  1.00  0.00     0.171 HD
ATOM     15  O   UNL     1      96.016 -10.675  22.674  1.00  0.00    -0.248 OA
ATOM     16  N   UNL     1      97.820 -11.361  24.002  1.00  0.00    -0.308 N 
ATOM     17  H   UNL     1      98.191 -12.180  24.478  1.00  0.00     0.171 HD
BRANCH  16  18
ATOM     18  C   UNL     1      98.582 -10.199  24.126  1.00  0.00     0.046 A 
ATOM     19  C   UNL     1      99.236  -9.677  23.008  1.00  0.00     0.008 A 
ATOM     20  C   UNL     1      98.685  -9.564  25.377  1.00  0.00    -0.035 A 
ATOM     21  C   UNL     1      99.978  -8.526  23.179  1.00  0.00     0.174 A 
ATOM     22  C   UNL     1      99.442  -8.400  25.525  1.00  0.00    -0.014 A 
ATOM     23  O   UNL     1     100.678  -7.877  22.209  1.00  0.00    -0.395 OA
ATOM     24  C   UNL     1     100.077  -7.904  24.404  1.00  0.00     0.172 A 
ATOM     25  C   UNL     1     101.222  -6.788  22.970  1.00  0.00     0.586 C 
ATOM     26  O   UNL     1     100.854  -6.786  24.357  1.00  0.00    -0.395 OA
ATOM     27  F   UNL     1     100.814  -5.622  22.411  1.00  0.00    -0.125 F 
ATOM     28  F   UNL     1     102.575  -6.831  22.882  1.00  0.00    -0.125 F 
ENDBRANCH  16  18
ENDBRANCH   2  12
TORSDOF 3
ENDMDL
MODEL 12
REMARK VINA RESULT:    -6.048     17.773     20.099
REMARK INTER + INTRA:          -7.420
REMARK INTER:                  -6.971
REMARK INTRA:                  -0.449
REMARK UNBOUND:                -0.312
REMARK SMILES O=C(Nc1ccc2c(c1)OC(F)(F)O2)Nc1ccc(Cl)c(C(F)(F)F)c1
REMARK SMILES IDX 20 1 16 2 21 3 26 4 17 5 19 6 18 7 22 8 23 9 24 10 25 11
REMARK SMILES IDX 15 12 2 13 1 15 3 16 4 18 9 19 5 20 8 21 6 22 10 23 7 24
REMARK SMILES IDX 11 25 14 26 12 27 13 28
REMARK H PARENT 15 14 3 17
REMARK Flexibility Score: inf
ROOT
ATOM      1  Cl  UNL     1     102.227  -4.537  24.880  1.00  0.00    -0.084 Cl
ATOM      2  C   UNL     1     100.183  -8.541  24.472  1.00  0.00     0.043 A 
ATOM      3  C   UNL     1     101.286  -6.653  23.446  1.00  0.00     0.076 A 
ATOM      4  C   UNL     1     100.654  -7.892  23.331  1.00  0.00    -0.025 A 
ATOM      5  C   UNL     1     100.344  -7.954  25.726  1.00  0.00    -0.037 A 
ATOM      6  C   UNL     1     101.447  -6.065  24.700  1.00  0.00     0.053 A 
ATOM      7  C   UNL     1     100.977  -6.716  25.841  1.00  0.00    -0.041 A 
ENDROOT
BRANCH   3   8
ATOM      8  C   UNL     1     101.779  -5.990  22.200  1.00  0.00     0.417 C 
ATOM      9  F   UNL     1     101.079  -4.859  21.898  1.00  0.00    -0.166 F 
ATOM     10  F   UNL     1     103.087  -5.605  22.270  1.00  0.00    -0.166 F 
ATOM     11  F   UNL     1     101.697  -6.782  21.092  1.00  0.00    -0.166 F 
ENDBRANCH   3   8
BRANCH   2  12
ATOM     12  N   UNL     1      99.539  -9.797  24.356  1.00  0.00    -0.308 N 
ATOM     13  C   UNL     1      98.345 -10.097  23.682  1.00  0.00     0.323 C 
ATOM     14  H   UNL     1     100.007 -10.571  24.822  1.00  0.00     0.171 HD
ATOM     15  O   UNL     1      97.655  -9.289  23.069  1.00  0.00    -0.248 OA
ATOM     16  N   UNL     1      98.051 -11.476  23.810  1.00  0.00    -0.308 N 
ATOM     17  H   UNL     1      98.717 -12.025  24.349  1.00  0.00     0.171 HD
BRANCH  16  18
ATOM     18  C   UNL     1      96.966 -12.187  23.295  1.00  0.00     0.046 A 
ATOM     19  C   UNL     1      95.710 -12.064  23.895  1.00  0.00     0.008 A 
ATOM     20  C   UNL     1      97.147 -13.022  22.178  1.00  0.00    -0.035 A 
ATOM     21  C   UNL     1      94.667 -12.785  23.352  1.00  0.00     0.174 A 
ATOM     22  C   UNL     1      96.075 -13.742  21.646  1.00  0.00    -0.014 A 
ATOM     23  O   UNL     1      93.382 -12.789  23.799  1.00  0.00    -0.395 OA
ATOM     24  C   UNL     1      94.844 -13.602  22.256  1.00  0.00     0.172 A 
ATOM     25  C   UNL     1      92.787 -13.699  22.861  1.00  0.00     0.586 C 
ATOM     26  O   UNL     1      93.692 -14.222  21.880  1.00  0.00    -0.395 OA
ATOM     27  F   UNL     1      91.774 -13.062  22.223  1.00  0.00    -0.125 F 
ATOM     28  F   UNL     1      92.246 -14.737  23.549  1.00  0.00    -0.125 F 
ENDBRANCH  16  18
ENDBRANCH   2  12
TORSDOF 3
ENDMDL
MODEL 13
REMARK VINA RESULT:    -6.027      3.891      9.464
REMARK INTER + INTRA:          -7.396
REMARK INTER:                  -7.260
REMARK INTRA:                  -0.136
REMARK UNBOUND:                -0.312
REMARK SMILES O=C(Nc1ccc2c(c1)OC(F)(F)O2)Nc1ccc(Cl)c(C(F)(F)F)c1
REMARK SMILES IDX 20 1 16 2 21 3 26 4 17 5 19 6 18 7 22 8 23 9 24 10 25 11
REMARK SMILES IDX 15 12 2 13 1 15 3 16 4 18 9 19 5 20 8 21 6 22 10 23 7 24
REMARK SMILES IDX 11 25 14 26 12 27 13 28
REMARK H PARENT 15 14 3 17
REMARK Flexibility Score: inf
ROOT
ATOM      1  Cl  UNL     1     101.900   8.149  26.922  1.00  0.00    -0.084 Cl
ATOM      2  C   UNL     1      97.552   9.174  26.267  1.00  0.00     0.043 A 
ATOM      3  C   UNL     1      99.822   9.111  25.444  1.00  0.00     0.076 A 
ATOM      4  C   UNL     1      98.476   9.422  25.252  1.00  0.00    -0.025 A 
ATOM      5  C   UNL     1      97.974   8.613  27.472  1.00  0.00    -0.037 A 
ATOM      6  C   UNL     1     100.244   8.550  26.650  1.00  0.00     0.053 A 
ATOM      7  C   UNL     1      99.319   8.301  27.665  1.00  0.00    -0.041 A 
ENDROOT
BRANCH   3   8
ATOM      8  C   UNL     1     100.781   9.390  24.332  1.00  0.00     0.417 C 
ATOM      9  F   UNL     1     101.503   8.288  23.976  1.00  0.00    -0.166 F 
ATOM     10  F   UNL     1     100.175   9.818  23.186  1.00  0.00    -0.166 F 
ATOM     11  F   UNL     1     101.700  10.352  24.633  1.00  0.00    -0.166 F 
ENDBRANCH   3   8
BRANCH   2  12
ATOM     12  N   UNL     1      96.186   9.492  26.073  1.00  0.00    -0.308 N 
ATOM     13  C   UNL     1      95.175   8.674  25.544  1.00  0.00     0.323 C 
ATOM     14  H   UNL     1      95.914  10.430  26.354  1.00  0.00     0.171 HD
ATOM     15  O   UNL     1      95.327   7.519  25.157  1.00  0.00    -0.248 OA
ATOM     16  N   UNL     1      93.946   9.377  25.523  1.00  0.00    -0.308 N 
ATOM     17  H   UNL     1      93.973  10.330  25.877  1.00  0.00     0.171 HD
BRANCH  16  18
ATOM     18  C   UNL     1      92.698   8.936  25.080  1.00  0.00     0.046 A 
ATOM     19  C   UNL     1      92.400   7.572  25.096  1.00  0.00     0.008 A 
ATOM     20  C   UNL     1      91.754   9.870  24.618  1.00  0.00    -0.035 A 
ATOM     21  C   UNL     1      91.154   7.183  24.648  1.00  0.00     0.174 A 
ATOM     22  C   UNL     1      90.499   9.452  24.170  1.00  0.00    -0.014 A 
ATOM     23  O   UNL     1      90.689   5.905  24.592  1.00  0.00    -0.395 OA
ATOM     24  C   UNL     1      90.229   8.099  24.197  1.00  0.00     0.172 A 
ATOM     25  C   UNL     1      89.377   6.133  24.056  1.00  0.00     0.586 C 
ATOM     26  O   UNL     1      89.066   7.510  23.801  1.00  0.00    -0.395 OA
ATOM     27  F   UNL     1      88.462   5.634  24.925  1.00  0.00    -0.125 F 
ATOM     28  F   UNL     1      89.257   5.440  22.896  1.00  0.00    -0.125 F 
ENDBRANCH  16  18
ENDBRANCH   2  12
TORSDOF 3
ENDMDL
MODEL 14
REMARK VINA RESULT:    -5.972      3.796      4.375
REMARK INTER + INTRA:          -7.331
REMARK INTER:                  -7.077
REMARK INTRA:                  -0.254
REMARK UNBOUND:                -0.312
REMARK SMILES O=C(Nc1ccc2c(c1)OC(F)(F)O2)Nc1ccc(Cl)c(C(F)(F)F)c1
REMARK SMILES IDX 20 1 16 2 21 3 26 4 17 5 19 6 18 7 22 8 23 9 24 10 25 11
REMARK SMILES IDX 15 12 2 13 1 15 3 16 4 18 9 19 5 20 8 21 6 22 10 23 7 24
REMARK SMILES IDX 11 25 14 26 12 27 13 28
REMARK H PARENT 15 14 3 17
REMARK Flexibility Score: inf
ROOT
ATOM      1  Cl  UNL     1      91.857   8.624  26.159  1.00  0.00    -0.084 Cl
ATOM      2  C   UNL     1      96.294   8.151  25.475  1.00  0.00     0.043 A 
ATOM      3  C   UNL     1      94.043   8.158  24.600  1.00  0.00     0.076 A 
ATOM      4  C   UNL     1      95.416   8.016  24.400  1.00  0.00    -0.025 A 
ATOM      5  C   UNL     1      95.800   8.430  26.748  1.00  0.00    -0.037 A 
ATOM      6  C   UNL     1      93.549   8.437  25.874  1.00  0.00     0.053 A 
ATOM      7  C   UNL     1      94.428   8.574  26.949  1.00  0.00    -0.041 A 
ENDROOT
BRANCH   3   8
ATOM      8  C   UNL     1      93.134   8.008  23.423  1.00  0.00     0.417 C 
ATOM      9  F   UNL     1      92.262   9.050  23.300  1.00  0.00    -0.166 F 
ATOM     10  F   UNL     1      93.796   7.940  22.231  1.00  0.00    -0.166 F 
ATOM     11  F   UNL     1      92.363   6.884  23.470  1.00  0.00    -0.166 F 
ENDBRANCH   3   8
BRANCH   2  12
ATOM     12  N   UNL     1      97.688   8.005  25.272  1.00  0.00    -0.308 N 
ATOM     13  C   UNL     1      98.610   7.316  26.076  1.00  0.00     0.323 C 
ATOM     14  H   UNL     1      98.057   8.457  24.440  1.00  0.00     0.171 HD
ATOM     15  O   UNL     1      98.339   6.716  27.111  1.00  0.00    -0.248 OA
ATOM     16  N   UNL     1      99.907   7.413  25.515  1.00  0.00    -0.308 N 
ATOM     17  H   UNL     1      99.979   7.945  24.652  1.00  0.00     0.171 HD
BRANCH  16  18
ATOM     18  C   UNL     1     101.104   6.876  25.992  1.00  0.00     0.046 A 
ATOM     19  C   UNL     1     101.590   5.682  25.454  1.00  0.00     0.008 A 
ATOM     20  C   UNL     1     101.809   7.542  27.010  1.00  0.00    -0.035 A 
ATOM     21  C   UNL     1     102.776   5.190  25.956  1.00  0.00     0.174 A 
ATOM     22  C   UNL     1     103.009   7.023  27.502  1.00  0.00    -0.014 A 
ATOM     23  O   UNL     1     103.399   4.047  25.556  1.00  0.00    -0.395 OA
ATOM     24  C   UNL     1     103.468   5.843  26.953  1.00  0.00     0.172 A 
ATOM     25  C   UNL     1     104.549   4.067  26.416  1.00  0.00     0.586 C 
ATOM     26  O   UNL     1     104.611   5.192  27.304  1.00  0.00    -0.395 OA
ATOM     27  F   UNL     1     105.666   4.058  25.646  1.00  0.00    -0.125 F 
ATOM     28  F   UNL     1     104.554   2.930  27.156  1.00  0.00    -0.125 F 
ENDBRANCH  16  18
ENDBRANCH   2  12
TORSDOF 3
ENDMDL
MODEL 15
REMARK VINA RESULT:    -5.908     12.556     14.123
REMARK INTER + INTRA:          -7.256
REMARK INTER:                  -6.852
REMARK INTRA:                  -0.404
REMARK UNBOUND:                -0.312
REMARK SMILES O=C(Nc1ccc2c(c1)OC(F)(F)O2)Nc1ccc(Cl)c(C(F)(F)F)c1
REMARK SMILES IDX 20 1 16 2 21 3 26 4 17 5 19 6 18 7 22 8 23 9 24 10 25 11
REMARK SMILES IDX 15 12 2 13 1 15 3 16 4 18 9 19 5 20 8 21 6 22 10 23 7 24
REMARK SMILES IDX 11 25 14 26 12 27 13 28
REMARK H PARENT 15 14 3 17
REMARK Flexibility Score: inf
ROOT
ATOM      1  Cl  UNL     1      94.645  -3.879   9.408  1.00  0.00    -0.084 Cl
ATOM      2  C   UNL     1      94.136  -0.981  12.831  1.00  0.00     0.043 A 
ATOM      3  C   UNL     1      93.365  -2.919  11.613  1.00  0.00     0.076 A 
ATOM      4  C   UNL     1      93.218  -2.019  12.668  1.00  0.00    -0.025 A 
ATOM      5  C   UNL     1      95.200  -0.844  11.940  1.00  0.00    -0.037 A 
ATOM      6  C   UNL     1      94.429  -2.783  10.722  1.00  0.00     0.053 A 
ATOM      7  C   UNL     1      95.348  -1.745  10.886  1.00  0.00    -0.041 A 
ENDROOT
BRANCH   3   8
ATOM      8  C   UNL     1      92.362  -4.019  11.473  1.00  0.00     0.417 C 
ATOM      9  F   UNL     1      92.943  -5.224  11.208  1.00  0.00    -0.166 F 
ATOM     10  F   UNL     1      91.609  -4.213  12.595  1.00  0.00    -0.166 F 
ATOM     11  F   UNL     1      91.463  -3.813  10.468  1.00  0.00    -0.166 F 
ENDBRANCH   3   8
BRANCH   2  12
ATOM     12  N   UNL     1      93.985  -0.065  13.900  1.00  0.00    -0.308 N 
ATOM     13  C   UNL     1      93.505   1.253  13.848  1.00  0.00     0.323 C 
ATOM     14  H   UNL     1      94.262  -0.414  14.814  1.00  0.00     0.171 HD
ATOM     15  O   UNL     1      93.129   1.831  12.834  1.00  0.00    -0.248 OA
ATOM     16  N   UNL     1      93.516   1.823  15.145  1.00  0.00    -0.308 N 
ATOM     17  H   UNL     1      93.856   1.222  15.892  1.00  0.00     0.171 HD
BRANCH  16  18
ATOM     18  C   UNL     1      93.122   3.103  15.536  1.00  0.00     0.046 A 
ATOM     19  C   UNL     1      93.917   4.203  15.207  1.00  0.00     0.008 A 
ATOM     20  C   UNL     1      91.929   3.273  16.261  1.00  0.00    -0.035 A 
ATOM     21  C   UNL     1      93.488   5.449  15.615  1.00  0.00     0.174 A 
ATOM     22  C   UNL     1      91.515   4.545  16.663  1.00  0.00    -0.014 A 
ATOM     23  O   UNL     1      94.127   6.628  15.385  1.00  0.00    -0.395 OA
ATOM     24  C   UNL     1      92.318   5.616  16.324  1.00  0.00     0.172 A 
ATOM     25  C   UNL     1      93.226   7.540  16.031  1.00  0.00     0.586 C 
ATOM     26  O   UNL     1      92.077   6.921  16.628  1.00  0.00    -0.395 OA
ATOM     27  F   UNL     1      92.803   8.451  15.119  1.00  0.00    -0.125 F 
ATOM     28  F   UNL     1      93.905   8.212  16.994  1.00  0.00    -0.125 F 
ENDBRANCH  16  18
ENDBRANCH   2  12
TORSDOF 3
ENDMDL
MODEL 16
REMARK VINA RESULT:    -5.903      9.195     12.843
REMARK INTER + INTRA:          -7.250
REMARK INTER:                  -6.735
REMARK INTRA:                  -0.515
REMARK UNBOUND:                -0.312
REMARK SMILES O=C(Nc1ccc2c(c1)OC(F)(F)O2)Nc1ccc(Cl)c(C(F)(F)F)c1
REMARK SMILES IDX 20 1 16 2 21 3 26 4 17 5 19 6 18 7 22 8 23 9 24 10 25 11
REMARK SMILES IDX 15 12 2 13 1 15 3 16 4 18 9 19 5 20 8 21 6 22 10 23 7 24
REMARK SMILES IDX 11 25 14 26 12 27 13 28
REMARK H PARENT 15 14 3 17
REMARK Flexibility Score: inf
ROOT
ATOM      1  Cl  UNL     1     104.335   3.613  16.936  1.00  0.00    -0.084 Cl
ATOM      2  C   UNL     1      99.837   3.962  17.104  1.00  0.00     0.043 A 
ATOM      3  C   UNL     1     101.808   2.613  16.741  1.00  0.00     0.076 A 
ATOM      4  C   UNL     1     100.419   2.732  16.797  1.00  0.00    -0.025 A 
ATOM      5  C   UNL     1     100.643   5.071  17.356  1.00  0.00    -0.037 A 
ATOM      6  C   UNL     1     102.614   3.723  16.993  1.00  0.00     0.053 A 
ATOM      7  C   UNL     1     102.032   4.953  17.301  1.00  0.00    -0.041 A 
ENDROOT
BRANCH   3   8
ATOM      8  C   UNL     1     102.394   1.278  16.411  1.00  0.00     0.417 C 
ATOM      9  F   UNL     1     101.441   0.314  16.256  1.00  0.00    -0.166 F 
ATOM     10  F   UNL     1     103.115   1.272  15.252  1.00  0.00    -0.166 F 
ATOM     11  F   UNL     1     103.245   0.805  17.366  1.00  0.00    -0.166 F 
ENDBRANCH   3   8
BRANCH   2  12
ATOM     12  N   UNL     1      98.428   4.083  17.159  1.00  0.00    -0.308 N 
ATOM     13  C   UNL     1      97.552   4.452  16.126  1.00  0.00     0.323 C 
ATOM     14  H   UNL     1      98.008   3.877  18.062  1.00  0.00     0.171 HD
ATOM     15  O   UNL     1      97.885   4.733  14.980  1.00  0.00    -0.248 OA
ATOM     16  N   UNL     1      96.217   4.450  16.601  1.00  0.00    -0.308 N 
ATOM     17  H   UNL     1      96.093   4.195  17.577  1.00  0.00     0.171 HD
BRANCH  16  18
ATOM     18  C   UNL     1      95.046   4.754  15.906  1.00  0.00     0.046 A 
ATOM     19  C   UNL     1      94.106   3.749  15.660  1.00  0.00     0.008 A 
ATOM     20  C   UNL     1      94.823   6.068  15.458  1.00  0.00    -0.035 A 
ATOM     21  C   UNL     1      92.963   4.096  14.970  1.00  0.00     0.174 A 
ATOM     22  C   UNL     1      93.657   6.394  14.761  1.00  0.00    -0.014 A 
ATOM     23  O   UNL     1      91.944   3.256  14.642  1.00  0.00    -0.395 OA
ATOM     24  C   UNL     1      92.744   5.384  14.532  1.00  0.00     0.172 A 
ATOM     25  C   UNL     1      91.073   4.167  13.953  1.00  0.00     0.586 C 
ATOM     26  O   UNL     1      91.560   5.514  13.873  1.00  0.00    -0.395 OA
ATOM     27  F   UNL     1      89.870   4.175  14.580  1.00  0.00    -0.125 F 
ATOM     28  F   UNL     1      90.872   3.704  12.693  1.00  0.00    -0.125 F 
ENDBRANCH  16  18
ENDBRANCH   2  12
TORSDOF 3
ENDMDL
MODEL 17
REMARK VINA RESULT:    -5.817      2.360      3.102
REMARK INTER + INTRA:          -7.150
REMARK INTER:                  -6.626
REMARK INTRA:                  -0.524
REMARK UNBOUND:                -0.312
REMARK SMILES O=C(Nc1ccc2c(c1)OC(F)(F)O2)Nc1ccc(Cl)c(C(F)(F)F)c1
REMARK SMILES IDX 20 1 16 2 21 3 26 4 17 5 19 6 18 7 22 8 23 9 24 10 25 11
REMARK SMILES IDX 15 12 2 13 1 15 3 16 4 18 9 19 5 20 8 21 6 22 10 23 7 24
REMARK SMILES IDX 11 25 14 26 12 27 13 28
REMARK H PARENT 15 14 3 17
REMARK Flexibility Score: inf
ROOT
ATOM      1  Cl  UNL     1      89.366   6.526  25.787  1.00  0.00    -0.084 Cl
ATOM      2  C   UNL     1      93.323   8.127  24.317  1.00  0.00     0.043 A 
ATOM      3  C   UNL     1      91.325   8.415  25.644  1.00  0.00     0.076 A 
ATOM      4  C   UNL     1      92.550   8.899  25.185  1.00  0.00    -0.025 A 
ATOM      5  C   UNL     1      92.872   6.872  23.910  1.00  0.00    -0.037 A 
ATOM      6  C   UNL     1      90.874   7.160  25.237  1.00  0.00     0.053 A 
ATOM      7  C   UNL     1      91.648   6.387  24.370  1.00  0.00    -0.041 A 
ENDROOT
BRANCH   3   8
ATOM      8  C   UNL     1      90.527   9.270  26.574  1.00  0.00     0.417 C 
ATOM      9  F   UNL     1      89.316   9.619  26.053  1.00  0.00    -0.166 F 
ATOM     10  F   UNL     1      90.254   8.667  27.768  1.00  0.00    -0.166 F 
ATOM     11  F   UNL     1      91.142  10.444  26.897  1.00  0.00    -0.166 F 
ENDBRANCH   3   8
BRANCH   2  12
ATOM     12  N   UNL     1      94.565   8.620  23.849  1.00  0.00    -0.308 N 
ATOM     13  C   UNL     1      95.852   8.296  24.309  1.00  0.00     0.323 C 
ATOM     14  H   UNL     1      94.509   9.290  23.087  1.00  0.00     0.171 HD
ATOM     15  O   UNL     1      96.103   7.510  25.217  1.00  0.00    -0.248 OA
ATOM     16  N   UNL     1      96.824   9.011  23.568  1.00  0.00    -0.308 N 
ATOM     17  H   UNL     1      96.466   9.629  22.844  1.00  0.00     0.171 HD
BRANCH  16  18
ATOM     18  C   UNL     1      98.213   8.982  23.700  1.00  0.00     0.046 A 
ATOM     19  C   UNL     1      98.812   9.533  24.835  1.00  0.00     0.008 A 
ATOM     20  C   UNL     1      98.996   8.402  22.687  1.00  0.00    -0.035 A 
ATOM     21  C   UNL     1     100.188   9.482  24.921  1.00  0.00     0.174 A 
ATOM     22  C   UNL     1     100.388   8.362  22.797  1.00  0.00    -0.014 A 
ATOM     23  O   UNL     1     100.942   9.963  25.948  1.00  0.00    -0.395 OA
ATOM     24  C   UNL     1     100.956   8.912  23.930  1.00  0.00     0.172 A 
ATOM     25  C   UNL     1     102.257   9.629  25.479  1.00  0.00     0.586 C 
ATOM     26  O   UNL     1     102.288   8.964  24.209  1.00  0.00    -0.395 OA
ATOM     27  F   UNL     1     102.856   8.834  26.401  1.00  0.00    -0.125 F 
ATOM     28  F   UNL     1     102.987  10.769  25.389  1.00  0.00    -0.125 F 
ENDBRANCH  16  18
ENDBRANCH   2  12
TORSDOF 3
ENDMDL
MODEL 18
REMARK VINA RESULT:    -5.778      4.746      5.411
REMARK INTER + INTRA:          -7.104
REMARK INTER:                  -6.813
REMARK INTRA:                  -0.291
REMARK UNBOUND:                -0.312
REMARK SMILES O=C(Nc1ccc2c(c1)OC(F)(F)O2)Nc1ccc(Cl)c(C(F)(F)F)c1
REMARK SMILES IDX 20 1 16 2 21 3 26 4 17 5 19 6 18 7 22 8 23 9 24 10 25 11
REMARK SMILES IDX 15 12 2 13 1 15 3 16 4 18 9 19 5 20 8 21 6 22 10 23 7 24
REMARK SMILES IDX 11 25 14 26 12 27 13 28
REMARK H PARENT 15 14 3 17
REMARK Flexibility Score: inf
ROOT
ATOM      1  Cl  UNL     1      89.397   6.076  25.119  1.00  0.00    -0.084 Cl
ATOM      2  C   UNL     1      93.056   8.279  23.656  1.00  0.00     0.043 A 
ATOM      3  C   UNL     1      91.241   8.078  25.237  1.00  0.00     0.076 A 
ATOM      4  C   UNL     1      92.374   8.750  24.778  1.00  0.00    -0.025 A 
ATOM      5  C   UNL     1      92.607   7.136  22.996  1.00  0.00    -0.037 A 
ATOM      6  C   UNL     1      90.792   6.936  24.577  1.00  0.00     0.053 A 
ATOM      7  C   UNL     1      91.475   6.463  23.455  1.00  0.00    -0.041 A 
ENDROOT
BRANCH   3   8
ATOM      8  C   UNL     1      90.539   8.613  26.444  1.00  0.00     0.417 C 
ATOM      9  F   UNL     1      91.240   9.610  27.056  1.00  0.00    -0.166 F 
ATOM     10  F   UNL     1      89.311   9.142  26.168  1.00  0.00    -0.166 F 
ATOM     11  F   UNL     1      90.317   7.673  27.407  1.00  0.00    -0.166 F 
ENDBRANCH   3   8
BRANCH   2  12
ATOM     12  N   UNL     1      94.205   8.961  23.188  1.00  0.00    -0.308 N 
ATOM     13  C   UNL     1      94.454   9.448  21.895  1.00  0.00     0.323 C 
ATOM     14  H   UNL     1      94.934   9.113  23.881  1.00  0.00     0.171 HD
ATOM     15  O   UNL     1      93.687   9.353  20.942  1.00  0.00    -0.248 OA
ATOM     16  N   UNL     1      95.725  10.070  21.849  1.00  0.00    -0.308 N 
ATOM     17  H   UNL     1      96.250  10.073  22.720  1.00  0.00     0.171 HD
BRANCH  16  18
ATOM     18  C   UNL     1      96.356  10.682  20.765  1.00  0.00     0.046 A 
ATOM     19  C   UNL     1      95.776  11.803  20.168  1.00  0.00     0.008 A 
ATOM     20  C   UNL     1      97.570  10.162  20.283  1.00  0.00    -0.035 A 
ATOM     21  C   UNL     1      96.436  12.373  19.099  1.00  0.00     0.174 A 
ATOM     22  C   UNL     1      98.220  10.757  19.200  1.00  0.00    -0.014 A 
ATOM     23  O   UNL     1      96.024  13.465  18.397  1.00  0.00    -0.395 OA
ATOM     24  C   UNL     1      97.627  11.865  18.628  1.00  0.00     0.172 A 
ATOM     25  C   UNL     1      97.090  13.572  17.441  1.00  0.00     0.586 C 
ATOM     26  O   UNL     1      98.111  12.572  17.570  1.00  0.00    -0.395 OA
ATOM     27  F   UNL     1      97.661  14.796  17.564  1.00  0.00    -0.125 F 
ATOM     28  F   UNL     1      96.562  13.492  16.193  1.00  0.00    -0.125 F 
ENDBRANCH  16  18
ENDBRANCH   2  12
TORSDOF 3
ENDMDL
MODEL 19
REMARK VINA RESULT:    -5.755     17.784     20.169
REMARK INTER + INTRA:          -7.076
REMARK INTER:                  -6.727
REMARK INTRA:                  -0.349
REMARK UNBOUND:                -0.312
REMARK SMILES O=C(Nc1ccc2c(c1)OC(F)(F)O2)Nc1ccc(Cl)c(C(F)(F)F)c1
REMARK SMILES IDX 20 1 16 2 21 3 26 4 17 5 19 6 18 7 22 8 23 9 24 10 25 11
REMARK SMILES IDX 15 12 2 13 1 15 3 16 4 18 9 19 5 20 8 21 6 22 10 23 7 24
REMARK SMILES IDX 11 25 14 26 12 27 13 28
REMARK H PARENT 15 14 3 17
REMARK Flexibility Score: inf
ROOT
ATOM      1  Cl  UNL     1     102.498  -4.752  23.394  1.00  0.00    -0.084 Cl
ATOM      2  C   UNL     1     100.079  -8.533  23.876  1.00  0.00     0.043 A 
ATOM      3  C   UNL     1     101.118  -6.587  24.861  1.00  0.00     0.076 A 
ATOM      4  C   UNL     1     100.369  -7.757  24.998  1.00  0.00    -0.025 A 
ATOM      5  C   UNL     1     100.535  -8.140  22.618  1.00  0.00    -0.037 A 
ATOM      6  C   UNL     1     101.574  -6.194  23.603  1.00  0.00     0.053 A 
ATOM      7  C   UNL     1     101.282  -6.970  22.481  1.00  0.00    -0.041 A 
ENDROOT
BRANCH   3   8
ATOM      8  C   UNL     1     101.406  -5.781  26.086  1.00  0.00     0.417 C 
ATOM      9  F   UNL     1     102.728  -5.793  26.420  1.00  0.00    -0.166 F 
ATOM     10  F   UNL     1     101.069  -4.464  25.962  1.00  0.00    -0.166 F 
ATOM     11  F   UNL     1     100.742  -6.219  27.194  1.00  0.00    -0.166 F 
ENDBRANCH   3   8
BRANCH   2  12
ATOM     12  N   UNL     1      99.322  -9.721  24.015  1.00  0.00    -0.308 N 
ATOM     13  C   UNL     1      98.196 -10.120  23.277  1.00  0.00     0.323 C 
ATOM     14  H   UNL     1      99.640 -10.358  24.741  1.00  0.00     0.171 HD
ATOM     15  O   UNL     1      97.680  -9.477  22.368  1.00  0.00    -0.248 OA
ATOM     16  N   UNL     1      97.739 -11.379  23.735  1.00  0.00    -0.308 N 
ATOM     17  H   UNL     1      98.268 -11.794  24.499  1.00  0.00     0.171 HD
BRANCH  16  18
ATOM     18  C   UNL     1      96.655 -12.131  23.278  1.00  0.00     0.046 A 
ATOM     19  C   UNL     1      95.409 -11.993  23.893  1.00  0.00     0.008 A 
ATOM     20  C   UNL     1      96.829 -13.022  22.205  1.00  0.00    -0.035 A 
ATOM     21  C   UNL     1      94.367 -12.756  23.408  1.00  0.00     0.174 A 
ATOM     22  C   UNL     1      95.759 -13.784  21.732  1.00  0.00    -0.014 A 
ATOM     23  O   UNL     1      93.089 -12.754  23.878  1.00  0.00    -0.395 OA
ATOM     24  C   UNL     1      94.537 -13.628  22.355  1.00  0.00     0.172 A 
ATOM     25  C   UNL     1      92.491 -13.721  23.001  1.00  0.00     0.586 C 
ATOM     26  O   UNL     1      93.388 -14.284  22.033  1.00  0.00    -0.395 OA
ATOM     27  F   UNL     1      91.459 -13.132  22.348  1.00  0.00    -0.125 F 
ATOM     28  F   UNL     1      91.978 -14.727  23.752  1.00  0.00    -0.125 F 
ENDBRANCH  16  18
ENDBRANCH   2  12
TORSDOF 3
ENDMDL
MODEL 20
REMARK VINA RESULT:    -5.708     18.992     19.971
REMARK INTER + INTRA:          -7.021
REMARK INTER:                  -6.709
REMARK INTRA:                  -0.312
REMARK UNBOUND:                -0.312
REMARK SMILES O=C(Nc1ccc2c(c1)OC(F)(F)O2)Nc1ccc(Cl)c(C(F)(F)F)c1
REMARK SMILES IDX 20 1 16 2 21 3 26 4 17 5 19 6 18 7 22 8 23 9 24 10 25 11
REMARK SMILES IDX 15 12 2 13 1 15 3 16 4 18 9 19 5 20 8 21 6 22 10 23 7 24
REMARK SMILES IDX 11 25 14 26 12 27 13 28
REMARK H PARENT 15 14 3 17
REMARK Flexibility Score: inf
ROOT
ATOM      1  Cl  UNL     1      89.651 -15.560  25.136  1.00  0.00    -0.084 Cl
ATOM      2  C   UNL     1      93.160 -13.511  23.169  1.00  0.00     0.043 A 
ATOM      3  C   UNL     1      90.774 -13.843  23.343  1.00  0.00     0.076 A 
ATOM      4  C   UNL     1      91.865 -13.214  22.743  1.00  0.00    -0.025 A 
ATOM      5  C   UNL     1      93.363 -14.434  24.194  1.00  0.00    -0.037 A 
ATOM      6  C   UNL     1      90.976 -14.766  24.368  1.00  0.00     0.053 A 
ATOM      7  C   UNL     1      92.272 -15.062  24.795  1.00  0.00    -0.041 A 
ENDROOT
BRANCH   3   8
ATOM      8  C   UNL     1      89.402 -13.497  22.860  1.00  0.00     0.417 C 
ATOM      9  F   UNL     1      88.656 -14.601  22.570  1.00  0.00    -0.166 F 
ATOM     10  F   UNL     1      88.670 -12.786  23.767  1.00  0.00    -0.166 F 
ATOM     11  F   UNL     1      89.399 -12.741  21.725  1.00  0.00    -0.166 F 
ENDBRANCH   3   8
BRANCH   2  12
ATOM     12  N   UNL     1      94.268 -12.875  22.559  1.00  0.00    -0.308 N 
ATOM     13  C   UNL     1      95.202 -12.010  23.152  1.00  0.00     0.323 C 
ATOM     14  H   UNL     1      94.395 -13.076  21.571  1.00  0.00     0.171 HD
ATOM     15  O   UNL     1      95.199 -11.662  24.328  1.00  0.00    -0.248 OA
ATOM     16  N   UNL     1      96.154 -11.595  22.190  1.00  0.00    -0.308 N 
ATOM     17  H   UNL     1      96.029 -11.965  21.251  1.00  0.00     0.171 HD
BRANCH  16  18
ATOM     18  C   UNL     1      97.245 -10.741  22.357  1.00  0.00     0.046 A 
ATOM     19  C   UNL     1      98.534 -11.200  22.073  1.00  0.00     0.008 A 
ATOM     20  C   UNL     1      97.037  -9.427  22.811  1.00  0.00    -0.035 A 
ATOM     21  C   UNL     1      99.581 -10.321  22.253  1.00  0.00     0.174 A 
ATOM     22  C   UNL     1      98.115  -8.555  22.985  1.00  0.00    -0.014 A 
ATOM     23  O   UNL     1     100.897 -10.589  22.028  1.00  0.00    -0.395 OA
ATOM     24  C   UNL     1      99.377  -9.032  22.697  1.00  0.00     0.172 A 
ATOM     25  C   UNL     1     101.481  -9.327  22.383  1.00  0.00     0.586 C 
ATOM     26  O   UNL     1     100.539  -8.331  22.807  1.00  0.00    -0.395 OA
ATOM     27  F   UNL     1     102.166  -8.851  21.314  1.00  0.00    -0.125 F 
ATOM     28  F   UNL     1     102.376  -9.530  23.383  1.00  0.00    -0.125 F 
ENDBRANCH  16  18
ENDBRANCH   2  12
TORSDOF 3
ENDMDL
