REMARK SMILES O=C(Nc1ccc2c(c1)OC(F)(F)O2)Nc1ccc(Cl)c(C(F)(F)F)c1
REMARK SMILES IDX 20 1 16 2 21 3 26 4 17 5 19 6 18 7 22 8 23 9 24 10 25 11
REMARK SMILES IDX 15 12 2 13 1 15 3 16 4 18 9 19 5 20 8 21 6 22 10 23 7 24
REMARK SMILES IDX 11 25 14 26 12 27 13 28
REMARK H PARENT 15 14 3 17
REMARK Flexibility Score: inf
ROOT
ATOM      1  Cl  UNL     1      94.743   7.263  16.442  1.00  0.00    -0.084 Cl
ATOM      2  C   UNL     1      93.445   4.255  13.336  1.00  0.00     0.043 A 
ATOM      3  C   UNL     1      93.594   6.549  14.077  1.00  0.00     0.076 A 
ATOM      4  C   UNL     1      93.199   5.611  13.122  1.00  0.00    -0.025 A 
ATOM      5  C   UNL     1      94.087   3.837  14.501  1.00  0.00    -0.037 A 
ATOM      6  C   UNL     1      94.236   6.132  15.242  1.00  0.00     0.053 A 
ATOM      7  C   UNL     1      94.483   4.775  15.455  1.00  0.00    -0.041 A 
ENDROOT
BRANCH   3   8
ATOM      8  C   UNL     1      93.315   7.994  13.810  1.00  0.00     0.417 C 
ATOM      9  F   UNL     1      92.600   8.184  12.664  1.00  0.00    -0.166 F 
ATOM     10  F   UNL     1      92.594   8.599  14.799  1.00  0.00    -0.166 F 
ATOM     11  F   UNL     1      94.441   8.750  13.673  1.00  0.00    -0.166 F 
ENDBRANCH   3   8
BRANCH   2  12
ATOM     12  N   UNL     1      93.042   3.302  12.369  1.00  0.00    -0.308 N 
ATOM     13  C   UNL     1      93.122   1.903  12.450  1.00  0.00     0.323 C 
ATOM     14  H   UNL     1      92.648   3.689  11.515  1.00  0.00     0.171 HD
ATOM     15  O   UNL     1      93.567   1.271  13.402  1.00  0.00    -0.248 OA
ATOM     16  N   UNL     1      92.609   1.321  11.265  1.00  0.00    -0.308 N 
ATOM     17  H   UNL     1      92.274   1.972  10.559  1.00  0.00     0.171 HD
BRANCH  16  18
ATOM     18  C   UNL     1      92.502  -0.031  10.934  1.00  0.00     0.046 A 
ATOM     19  C   UNL     1      93.069  -0.995  11.771  1.00  0.00     0.008 A 
ATOM     20  C   UNL     1      91.826  -0.409   9.761  1.00  0.00    -0.035 A 
ATOM     21  C   UNL     1      92.938  -2.318  11.403  1.00  0.00     0.174 A 
ATOM     22  C   UNL     1      91.707  -1.756   9.410  1.00  0.00    -0.014 A 
ATOM     23  O   UNL     1      93.422  -3.389  12.091  1.00  0.00    -0.395 OA
ATOM     24  C   UNL     1      92.275  -2.689  10.254  1.00  0.00     0.172 A 
ATOM     25  C   UNL     1      92.986  -4.459  11.240  1.00  0.00     0.586 C 
ATOM     26  O   UNL     1      92.259  -4.039  10.076  1.00  0.00    -0.395 OA
ATOM     27  F   UNL     1      92.200  -5.296  11.964  1.00  0.00    -0.125 F 
ATOM     28  F   UNL     1      94.073  -5.165  10.840  1.00  0.00    -0.125 F 
ENDBRANCH  16  18
ENDBRANCH   2  12
TORSDOF 3
