MODEL 1
REMARK VINA RESULT:    -8.338      0.000      0.000
REMARK INTER + INTRA:         -17.408
REMARK INTER:                 -14.348
REMARK INTRA:                  -3.060
REMARK UNBOUND:                -2.490
WARNING: damped steplength 0.00759438 to 0.00666589
REMARK  Name = /tmp/RJWTFN0
REMARK                            x       y       z     vdW  Elec       q    Type
REMARK                         _______ _______ _______ _____ _____    ______ ____
ROOT
ATOM      1  C   UNK A  3       -2.845  -0.998 -12.008  0.00  0.00    +0.165 C 
ATOM      2  C   UNK A  3       -4.132  -1.776 -12.561  0.00  0.00    +0.234 C 
ATOM      3  N   ALA A  4       -5.344  -1.246 -12.093  0.00  0.00    -0.304 N 
ATOM      4  H   ALA A  4       -5.390  -0.265 -12.038  0.00  0.00    +0.273 HD
ATOM      5  H   UNK A  5       -8.846   0.037 -10.299  0.00  0.00    +0.121 HD
ATOM      6  N   UNK A  5       -7.921  -0.034 -10.630  0.00  0.00    -0.307 N 
ATOM      7  C   UNK A  5       -7.025   0.972  -9.992  0.00  0.00    +0.123 C 
ATOM      8  C   UNK A  5       -6.999   0.927  -8.450  0.00  0.00    +0.067 C 
ATOM      9  C   UNK A  3       -1.381  -2.224  -7.871  0.00  0.00    +0.195 C 
ATOM     10  C   UNK A  3       -1.635  -3.290  -8.972  0.00  0.00    +0.163 C 
ATOM     11  O   UNK A  3       -1.255  -4.457  -8.813  0.00  0.00    -0.295 OA
ATOM     12  C   UNK A  3       -2.335  -2.919 -10.292  0.00  0.00    +0.083 C 
ATOM     13  C   UNK A  3       -2.336  -1.019  -8.069  0.00  0.00    +0.059 C 
ATOM     14  C   UNK A  5       -3.813  -1.099  -7.634  0.00  0.00    +0.000 A 
ATOM     15  C   UNK A  5       -4.324  -1.925  -6.623  0.00  0.00    +0.120 A 
ATOM     16  C   UNK A  5       -5.659  -1.828  -6.204  0.00  0.00    -0.018 A 
ATOM     17  C   UNK A  5       -6.526  -0.925  -6.811  0.00  0.00    -0.055 A 
ATOM     18  C   UNK A  5       -4.712  -0.150  -8.173  0.00  0.00    -0.052 A 
ATOM     19  C   UNK A  3       -2.082  -0.525  -9.530  0.00  0.00    +0.017 C 
ATOM     20  C   UNK A  5       -6.070  -0.098  -7.833  0.00  0.00    -0.045 A 
ATOM     21  C   ALA A  4       -7.787  -1.030 -11.556  0.00  0.00    +0.234 C 
ATOM     22  O   ALA A  4       -8.794  -1.265 -12.222  0.00  0.00    -0.274 OA
ATOM     23  CB  ALA A  4       -6.847  -3.146 -12.580  0.00  0.00    -0.036 C 
ATOM     24  CA  ALA A  4       -6.524  -1.954 -11.685  0.00  0.00    +0.097 C 
ATOM     25  O   UNK A  3       -4.021  -2.888 -13.083  0.00  0.00    -0.274 OA
ATOM     26  C   UNK A  3       -2.798  -1.453 -10.496  0.00  0.00    +0.026 C 
ENDROOT
BRANCH   1  28
ATOM     27  C   GLY A  2       -1.664   1.073 -12.858  0.00  0.00    +0.233 C 
ATOM     28  N   UNK A  3       -2.779   0.510 -12.242  0.00  0.00    -0.291 N 
ATOM     29  C   UNK A  3       -3.890   1.348 -11.875  0.00  0.00    +0.133 C 
ATOM     30  O   GLY A  2       -0.663   0.409 -13.135  0.00  0.00    -0.274 OA
BRANCH  27  31
ATOM     31  CA  GLY A  2       -1.742   2.602 -13.142  0.00  0.00    +0.200 C 
BRANCH  31  33
ATOM     32  C   ALA A  1       -1.331   2.859 -15.565  0.00  0.00    +0.233 C 
ATOM     33  N   GLY A  2       -2.160   3.026 -14.459  0.00  0.00    -0.305 N 
ATOM     34  H   GLY A  2       -3.046   3.438 -14.576  0.00  0.00    +0.149 HD
ATOM     35  O   ALA A  1       -0.116   2.660 -15.474  0.00  0.00    -0.274 OA
BRANCH  32  36
ATOM     36  CA  ALA A  1       -2.015   2.962 -16.972  0.00  0.00    +0.156 C 
ATOM     37  CB  ALA A  1       -1.510   4.170 -17.763  0.00  0.00    +0.038 C 
BRANCH  36  39
ATOM     38  C   UNK A  0       -4.458   3.555 -16.677  0.00  0.00    +0.236 C 
ATOM     39  N   ALA A  1       -3.449   2.725 -17.120  0.00  0.00    -0.303 N 
ATOM     40  H   ALA A  1       -3.719   1.896 -17.576  0.00  0.00    +0.149 HD
ATOM     41  O   UNK A  0       -4.211   4.570 -15.982  0.00  0.00    -0.274 OA
BRANCH  38  42
ATOM     42  C   UNK A  0       -5.897   3.016 -16.836  0.00  0.00    +0.187 C 
BRANCH  42  43
ATOM     43  N   UNK A  0       -6.412   2.441 -15.566  0.00  0.00    -0.291 N 
ATOM     44  C   UNK A  0       -6.256   1.135 -15.101  0.00  0.00    +0.213 C 
ATOM     45  C   UNK A  0       -5.453   0.149 -15.885  0.00  0.00    +0.109 C 
ATOM     46  O   UNK A  0       -6.737   0.768 -14.034  0.00  0.00    -0.276 OA
ATOM     47  C   UNK A  0       -7.367   3.284 -14.840  0.00  0.00    +0.133 C 
ENDBRANCH  42  43
BRANCH  42  48
ATOM     48  C   UNK A  0       -6.870   3.827 -17.730  0.00  0.00    +0.187 C 
BRANCH  48  49
ATOM     49  O   UNK A  0       -6.676   5.234 -17.741  0.00  0.00    -0.393 OA
ATOM     50  H   UNK A  0       -7.136   5.629 -16.983  0.00  0.00    +0.209 HD
ENDBRANCH  48  49
ENDBRANCH  42  48
ENDBRANCH  38  42
ENDBRANCH  36  39
ENDBRANCH  32  36
ENDBRANCH  31  33
ENDBRANCH  27  31
ENDBRANCH   1  28
BRANCH   7  51
ATOM     51  C   UNK A  5       -7.492   2.436 -10.348  0.00  0.00    +0.062 C 
ATOM     52  O   UNK A  5       -7.942   2.593 -11.536  0.00  0.00    -0.548 OA
ATOM     53  O   UNK A  5       -7.317   3.275  -9.435  0.00  0.00    -0.548 OA
ENDBRANCH   7  51
BRANCH  15  54
ATOM     54  O   UNK A  5       -3.517  -2.815  -5.979  0.00  0.00    -0.509 OA
ATOM     55  H   UNK A  5       -2.724  -2.521  -5.576  0.00  0.00    +0.236 HD
ENDBRANCH  15  54
BRANCH   9  56
ATOM     56  O   UNK A  3        0.019  -1.810  -7.865  0.00  0.00    -0.337 OA
BRANCH  56  60
ATOM     57  C   UNK A  3        1.537  -1.436  -3.537  0.00  0.00    +0.016 C 
ATOM     58  C   UNK A  3        1.594  -0.853  -4.943  0.00  0.00    +0.149 C 
ATOM     59  O   UNK A  3        0.357  -1.130  -5.612  0.00  0.00    -0.343 OA
ATOM     60  C   UNK A  3        0.306  -0.703  -6.987  0.00  0.00    +0.282 C 
ATOM     61  C   UNK A  3        1.555   0.123  -7.404  0.00  0.00    +0.201 C 
ATOM     62  C   UNK A  3        2.852  -0.639  -7.124  0.00  0.00    +0.179 C 
ATOM     63  C   UNK A  3        2.784  -1.381  -5.772  0.00  0.00    +0.174 C 
BRANCH  61  64
ATOM     64  O   UNK A  3        1.510   0.663  -8.724  0.00  0.00    -0.384 OA
ATOM     65  H   UNK A  3        1.352   1.620  -8.677  0.00  0.00    +0.210 HD
ENDBRANCH  61  64
BRANCH  62  66
ATOM     66  O   UNK A  3        3.159  -1.523  -8.206  0.00  0.00    -0.386 OA
ATOM     67  H   UNK A  3        3.793  -2.193  -7.907  0.00  0.00    +0.210 HD
ENDBRANCH  62  66
BRANCH  63  68
ATOM     68  O   UNK A  3        2.697  -2.789  -6.036  0.00  0.00    -0.387 OA
ATOM     69  H   UNK A  3        1.787  -3.090  -5.888  0.00  0.00    +0.210 HD
ENDBRANCH  63  68
ENDBRANCH  56  60
ENDBRANCH   9  56
TORSDOF 16
ENDMDL
MODEL 2
REMARK VINA RESULT:    -8.296      2.402      8.391
REMARK INTER + INTRA:         -17.333
REMARK INTER:                 -14.318
REMARK INTRA:                  -3.015
REMARK UNBOUND:                -2.490
WARNING: damped steplength 0.00759438 to 0.00666589
REMARK  Name = /tmp/RJWTFN0
REMARK                            x       y       z     vdW  Elec       q    Type
REMARK                         _______ _______ _______ _____ _____    ______ ____
ROOT
ATOM      1  C   UNK A  3       -4.621  -1.549 -14.564  0.00  0.00    +0.165 C 
ATOM      2  C   UNK A  3       -4.934  -0.610 -15.825  0.00  0.00    +0.234 C 
ATOM      3  N   ALA A  4       -4.019   0.444 -15.971  0.00  0.00    -0.304 N 
ATOM      4  H   ALA A  4       -3.078   0.225 -15.784  0.00  0.00    +0.273 HD
ATOM      5  H   UNK A  5       -1.602   3.802 -16.065  0.00  0.00    +0.121 HD
ATOM      6  N   UNK A  5       -1.985   2.915 -15.876  0.00  0.00    -0.307 N 
ATOM      7  C   UNK A  5       -1.325   2.264 -14.708  0.00  0.00    +0.123 C 
ATOM      8  C   UNK A  5       -1.347   3.095 -13.409  0.00  0.00    +0.067 C 
ATOM      9  C   UNK A  3       -6.186  -0.094 -10.540  0.00  0.00    +0.195 C 
ATOM     10  C   UNK A  3       -7.126  -0.182 -11.772  0.00  0.00    +0.163 C 
ATOM     11  O   UNK A  3       -8.350  -0.056 -11.637  0.00  0.00    -0.295 OA
ATOM     12  C   UNK A  3       -6.568  -0.457 -13.181  0.00  0.00    +0.083 C 
ATOM     13  C   UNK A  3       -4.735   0.199 -10.999  0.00  0.00    +0.059 C 
ATOM     14  C   UNK A  5       -4.307   1.621 -11.412  0.00  0.00    +0.000 A 
ATOM     15  C   UNK A  5       -4.893   2.814 -10.966  0.00  0.00    +0.120 A 
ATOM     16  C   UNK A  5       -4.347   4.064 -11.290  0.00  0.00    -0.018 A 
ATOM     17  C   UNK A  5       -3.217   4.154 -12.098  0.00  0.00    -0.055 A 
ATOM     18  C   UNK A  5       -3.122   1.759 -12.172  0.00  0.00    -0.052 A 
ATOM     19  C   UNK A  3       -4.383  -0.939 -12.010  0.00  0.00    +0.017 C 
ATOM     20  C   UNK A  5       -2.611   2.998 -12.581  0.00  0.00    -0.045 A 
ATOM     21  C   ALA A  4       -2.986   2.597 -16.749  0.00  0.00    +0.234 C 
ATOM     22  O   ALA A  4       -2.884   3.095 -17.869  0.00  0.00    -0.274 OA
ATOM     23  CB  ALA A  4       -5.315   1.916 -17.475  0.00  0.00    -0.036 C 
ATOM     24  CA  ALA A  4       -4.282   1.801 -16.357  0.00  0.00    +0.097 C 
ATOM     25  O   UNK A  3       -6.029  -0.656 -16.390  0.00  0.00    -0.274 OA
ATOM     26  C   UNK A  3       -5.036  -0.631 -13.347  0.00  0.00    +0.026 C 
ENDROOT
BRANCH   1  28
ATOM     27  C   GLY A  2       -3.066  -3.453 -13.966  0.00  0.00    +0.233 C 
ATOM     28  N   UNK A  3       -3.228  -2.166 -14.475  0.00  0.00    -0.291 N 
ATOM     29  C   UNK A  3       -2.083  -1.445 -14.963  0.00  0.00    +0.133 C 
ATOM     30  O   GLY A  2       -4.003  -4.089 -13.479  0.00  0.00    -0.274 OA
BRANCH  27  31
ATOM     31  CA  GLY A  2       -1.619  -4.028 -14.014  0.00  0.00    +0.200 C 
BRANCH  31  33
ATOM     32  C   ALA A  1       -0.574  -3.397 -11.864  0.00  0.00    +0.233 C 
ATOM     33  N   GLY A  2       -0.988  -4.379 -12.761  0.00  0.00    -0.305 N 
ATOM     34  H   GLY A  2       -0.849  -5.327 -12.539  0.00  0.00    +0.149 HD
ATOM     35  O   ALA A  1       -0.413  -2.216 -12.184  0.00  0.00    -0.274 OA
BRANCH  32  36
ATOM     36  CA  ALA A  1       -0.290  -3.868 -10.396  0.00  0.00    +0.156 C 
ATOM     37  CB  ALA A  1       -0.967  -5.203 -10.087  0.00  0.00    +0.038 C 
BRANCH  36  39
ATOM     38  C   UNK A  0        0.668  -2.679  -8.377  0.00  0.00    +0.236 C 
ATOM     39  N   ALA A  1       -0.341  -2.916  -9.289  0.00  0.00    -0.303 N 
ATOM     40  H   ALA A  1       -1.170  -2.398  -9.183  0.00  0.00    +0.149 HD
ATOM     41  O   UNK A  0        1.712  -3.375  -8.362  0.00  0.00    -0.274 OA
BRANCH  38  42
ATOM     42  C   UNK A  0        0.321  -1.719  -7.218  0.00  0.00    +0.187 C 
BRANCH  42  43
ATOM     43  N   UNK A  0        1.490  -0.890  -6.821  0.00  0.00    -0.291 N 
ATOM     44  C   UNK A  0        2.011  -0.716  -5.539  0.00  0.00    +0.213 C 
ATOM     45  C   UNK A  0        1.415  -1.445  -4.380  0.00  0.00    +0.109 C 
ATOM     46  O   UNK A  0        2.981   0.006  -5.329  0.00  0.00    -0.276 OA
ATOM     47  C   UNK A  0        2.005   0.003  -7.864  0.00  0.00    +0.133 C 
ENDBRANCH  42  43
BRANCH  42  48
ATOM     48  C   UNK A  0       -1.084  -1.061  -7.228  0.00  0.00    +0.187 C 
BRANCH  48  49
ATOM     49  O   UNK A  0       -1.406  -0.307  -8.387  0.00  0.00    -0.393 OA
ATOM     50  H   UNK A  0       -0.651   0.255  -8.627  0.00  0.00    +0.209 HD
ENDBRANCH  48  49
ENDBRANCH  42  48
ENDBRANCH  38  42
ENDBRANCH  36  39
ENDBRANCH  32  36
ENDBRANCH  31  33
ENDBRANCH  27  31
ENDBRANCH   1  28
BRANCH   7  51
ATOM     51  C   UNK A  5        0.203   2.011 -15.005  0.00  0.00    +0.062 C 
ATOM     52  O   UNK A  5        0.449   1.119 -15.889  0.00  0.00    -0.548 OA
ATOM     53  O   UNK A  5        0.989   2.686 -14.300  0.00  0.00    -0.548 OA
ENDBRANCH   7  51
BRANCH  15  54
ATOM     54  O   UNK A  5       -5.989   2.787 -10.157  0.00  0.00    -0.509 OA
ATOM     55  H   UNK A  5       -6.764   3.254 -10.402  0.00  0.00    +0.236 HD
ENDBRANCH  15  54
BRANCH   9  56
ATOM     56  O   UNK A  3       -6.265  -1.313  -9.740  0.00  0.00    -0.337 OA
BRANCH  56  60
ATOM     57  C   UNK A  3       -7.207  -4.044  -6.159  0.00  0.00    +0.016 C 
ATOM     58  C   UNK A  3       -7.010  -2.608  -6.626  0.00  0.00    +0.149 C 
ATOM     59  O   UNK A  3       -7.366  -2.516  -8.010  0.00  0.00    -0.343 OA
ATOM     60  C   UNK A  3       -7.149  -1.221  -8.604  0.00  0.00    +0.282 C 
ATOM     61  C   UNK A  3       -6.726  -0.148  -7.563  0.00  0.00    +0.201 C 
ATOM     62  C   UNK A  3       -5.496  -0.590  -6.768  0.00  0.00    +0.179 C 
ATOM     63  C   UNK A  3       -5.574  -2.088  -6.404  0.00  0.00    +0.174 C 
BRANCH  61  64
ATOM     64  O   UNK A  3       -6.600   1.178  -8.077  0.00  0.00    -0.384 OA
ATOM     65  H   UNK A  3       -6.551   1.807  -7.340  0.00  0.00    +0.210 HD
ENDBRANCH  61  64
BRANCH  62  66
ATOM     66  O   UNK A  3       -4.297  -0.273  -7.481  0.00  0.00    -0.386 OA
ATOM     67  H   UNK A  3       -3.736   0.298  -6.933  0.00  0.00    +0.210 HD
ENDBRANCH  62  66
BRANCH  63  68
ATOM     68  O   UNK A  3       -4.600  -2.792  -7.188  0.00  0.00    -0.387 OA
ATOM     69  H   UNK A  3       -3.836  -2.216  -7.348  0.00  0.00    +0.210 HD
ENDBRANCH  63  68
ENDBRANCH  56  60
ENDBRANCH   9  56
TORSDOF 16
ENDMDL
MODEL 3
REMARK VINA RESULT:    -8.248      2.689     11.215
REMARK INTER + INTRA:         -17.248
REMARK INTER:                 -14.402
REMARK INTRA:                  -2.846
REMARK UNBOUND:                -2.490
WARNING: damped steplength 0.00759438 to 0.00666589
REMARK  Name = /tmp/RJWTFN0
REMARK                            x       y       z     vdW  Elec       q    Type
REMARK                         _______ _______ _______ _____ _____    ______ ____
ROOT
ATOM      1  C   UNK A  3       -6.531   0.928 -14.189  0.00  0.00    +0.165 C 
ATOM      2  C   UNK A  3       -5.420  -0.200 -14.439  0.00  0.00    +0.234 C 
ATOM      3  N   ALA A  4       -4.110   0.303 -14.445  0.00  0.00    -0.304 N 
ATOM      4  H   ALA A  4       -3.915   0.999 -13.778  0.00  0.00    +0.273 HD
ATOM      5  H   UNK A  5       -0.328   1.906 -14.947  0.00  0.00    +0.121 HD
ATOM      6  N   UNK A  5       -1.275   1.766 -14.720  0.00  0.00    -0.307 N 
ATOM      7  C   UNK A  5       -1.960   3.048 -14.385  0.00  0.00    +0.123 C 
ATOM      8  C   UNK A  5       -1.873   4.131 -15.481  0.00  0.00    +0.067 C 
ATOM      9  C   UNK A  3       -7.834   3.307 -17.850  0.00  0.00    +0.195 C 
ATOM     10  C   UNK A  3       -7.827   1.755 -17.873  0.00  0.00    +0.163 C 
ATOM     11  O   UNK A  3       -8.362   1.140 -18.804  0.00  0.00    -0.295 OA
ATOM     12  C   UNK A  3       -7.184   0.944 -16.732  0.00  0.00    +0.083 C 
ATOM     13  C   UNK A  3       -6.729   3.828 -16.896  0.00  0.00    +0.059 C 
ATOM     14  C   UNK A  5       -5.250   3.853 -17.334  0.00  0.00    +0.000 A 
ATOM     15  C   UNK A  5       -4.790   3.941 -18.655  0.00  0.00    +0.120 A 
ATOM     16  C   UNK A  5       -3.428   4.096 -18.947  0.00  0.00    -0.018 A 
ATOM     17  C   UNK A  5       -2.486   4.133 -17.923  0.00  0.00    -0.055 A 
ATOM     18  C   UNK A  5       -4.266   3.964 -16.325  0.00  0.00    -0.052 A 
ATOM     19  C   UNK A  3       -7.020   3.152 -15.518  0.00  0.00    +0.017 C 
ATOM     20  C   UNK A  5       -2.892   4.029 -16.596  0.00  0.00    -0.045 A 
ATOM     21  C   ALA A  4       -1.627   0.448 -14.792  0.00  0.00    +0.234 C 
ATOM     22  O   ALA A  4       -0.722  -0.350 -14.557  0.00  0.00    -0.274 OA
ATOM     23  CB  ALA A  4       -2.948  -1.571 -15.561  0.00  0.00    -0.036 C 
ATOM     24  CA  ALA A  4       -3.020  -0.069 -15.301  0.00  0.00    +0.097 C 
ATOM     25  O   UNK A  3       -5.735  -1.310 -14.876  0.00  0.00    -0.274 OA
ATOM     26  C   UNK A  3       -6.527   1.715 -15.559  0.00  0.00    +0.026 C 
ENDROOT
BRANCH   1  28
ATOM     27  C   GLY A  2       -7.446   1.887 -12.034  0.00  0.00    +0.233 C 
ATOM     28  N   UNK A  3       -6.389   1.790 -12.937  0.00  0.00    -0.291 N 
ATOM     29  C   UNK A  3       -5.148   2.462 -12.656  0.00  0.00    +0.133 C 
ATOM     30  O   GLY A  2       -8.547   1.382 -12.257  0.00  0.00    -0.274 OA
BRANCH  27  31
ATOM     31  CA  GLY A  2       -7.163   2.707 -10.740  0.00  0.00    +0.200 C 
BRANCH  31  33
ATOM     32  C   ALA A  1       -7.060   0.979  -8.975  0.00  0.00    +0.233 C 
ATOM     33  N   GLY A  2       -6.474   2.044  -9.656  0.00  0.00    -0.305 N 
ATOM     34  H   GLY A  2       -5.576   2.349  -9.394  0.00  0.00    +0.149 HD
ATOM     35  O   ALA A  1       -8.271   0.741  -9.009  0.00  0.00    -0.274 OA
BRANCH  32  36
ATOM     36  CA  ALA A  1       -6.099   0.083  -8.121  0.00  0.00    +0.156 C 
ATOM     37  CB  ALA A  1       -6.344   0.254  -6.621  0.00  0.00    +0.038 C 
BRANCH  36  39
ATOM     38  C   UNK A  0       -4.180  -0.275  -9.733  0.00  0.00    +0.236 C 
ATOM     39  N   ALA A  1       -4.685  -0.034  -8.472  0.00  0.00    -0.303 N 
ATOM     40  H   ALA A  1       -4.034   0.070  -7.742  0.00  0.00    +0.149 HD
ATOM     41  O   UNK A  0       -4.936  -0.537 -10.700  0.00  0.00    -0.274 OA
BRANCH  38  42
ATOM     42  C   UNK A  0       -2.653  -0.487  -9.822  0.00  0.00    +0.187 C 
BRANCH  42  43
ATOM     43  N   UNK A  0       -2.237  -1.767  -9.190  0.00  0.00    -0.291 N 
ATOM     44  C   UNK A  0       -1.281  -1.948  -8.190  0.00  0.00    +0.213 C 
ATOM     45  C   UNK A  0       -0.580  -0.770  -7.598  0.00  0.00    +0.109 C 
ATOM     46  O   UNK A  0       -1.012  -3.061  -7.749  0.00  0.00    -0.276 OA
ATOM     47  C   UNK A  0       -2.734  -2.979  -9.847  0.00  0.00    +0.133 C 
ENDBRANCH  42  43
BRANCH  42  48
ATOM     48  C   UNK A  0       -1.943  -0.040 -11.126  0.00  0.00    +0.187 C 
BRANCH  48  49
ATOM     49  O   UNK A  0       -0.755   0.719 -10.956  0.00  0.00    -0.393 OA
ATOM     50  H   UNK A  0       -0.918   1.437 -10.322  0.00  0.00    +0.209 HD
ENDBRANCH  48  49
ENDBRANCH  42  48
ENDBRANCH  38  42
ENDBRANCH  36  39
ENDBRANCH  32  36
ENDBRANCH  31  33
ENDBRANCH  27  31
ENDBRANCH   1  28
BRANCH   7  51
ATOM     51  C   UNK A  5       -1.310   3.707 -13.108  0.00  0.00    +0.062 C 
ATOM     52  O   UNK A  5       -1.738   3.265 -11.987  0.00  0.00    -0.548 OA
ATOM     53  O   UNK A  5       -0.488   4.620 -13.355  0.00  0.00    -0.548 OA
ENDBRANCH   7  51
BRANCH  15  54
ATOM     54  O   UNK A  5       -5.668   3.930 -19.698  0.00  0.00    -0.509 OA
ATOM     55  H   UNK A  5       -5.738   4.677 -20.259  0.00  0.00    +0.236 HD
ENDBRANCH  15  54
BRANCH   9  56
ATOM     56  O   UNK A  3       -9.152   3.814 -17.480  0.00  0.00    -0.337 OA
BRANCH  56  60
ATOM     57  C   UNK A  3      -10.578   7.810 -19.260  0.00  0.00    +0.016 C 
ATOM     58  C   UNK A  3      -10.464   6.967 -17.997  0.00  0.00    +0.149 C 
ATOM     59  O   UNK A  3       -9.333   6.097 -18.119  0.00  0.00    -0.343 OA
ATOM     60  C   UNK A  3       -9.155   5.181 -17.021  0.00  0.00    +0.282 C 
ATOM     61  C   UNK A  3      -10.142   5.449 -15.852  0.00  0.00    +0.201 C 
ATOM     62  C   UNK A  3      -11.596   5.442 -16.330  0.00  0.00    +0.179 C 
ATOM     63  C   UNK A  3      -11.739   6.152 -17.693  0.00  0.00    +0.174 C 
BRANCH  61  64
ATOM     64  O   UNK A  3       -9.942   4.640 -14.692  0.00  0.00    -0.384 OA
ATOM     65  H   UNK A  3      -10.446   3.816 -14.783  0.00  0.00    +0.210 HD
ENDBRANCH  61  64
BRANCH  62  66
ATOM     66  O   UNK A  3      -12.106   4.106 -16.365  0.00  0.00    -0.386 OA
ATOM     67  H   UNK A  3      -11.464   3.526 -16.803  0.00  0.00    +0.210 HD
ENDBRANCH  62  66
BRANCH  63  68
ATOM     68  O   UNK A  3      -12.016   5.159 -18.690  0.00  0.00    -0.387 OA
ATOM     69  H   UNK A  3      -11.937   4.275 -18.297  0.00  0.00    +0.210 HD
ENDBRANCH  63  68
ENDBRANCH  56  60
ENDBRANCH   9  56
TORSDOF 16
ENDMDL
MODEL 4
REMARK VINA RESULT:    -8.136      1.009      1.790
REMARK INTER + INTRA:         -17.048
REMARK INTER:                 -14.257
REMARK INTRA:                  -2.791
REMARK UNBOUND:                -2.490
WARNING: damped steplength 0.00759438 to 0.00666589
REMARK  Name = /tmp/RJWTFN0
REMARK                            x       y       z     vdW  Elec       q    Type
REMARK                         _______ _______ _______ _____ _____    ______ ____
ROOT
ATOM      1  C   UNK A  3       -2.765  -0.741 -12.058  0.00  0.00    +0.165 C 
ATOM      2  C   UNK A  3       -4.036  -1.450 -12.730  0.00  0.00    +0.234 C 
ATOM      3  N   ALA A  4       -5.260  -0.920 -12.296  0.00  0.00    -0.304 N 
ATOM      4  H   ALA A  4       -5.289   0.056 -12.179  0.00  0.00    +0.273 HD
ATOM      5  H   UNK A  5       -8.829   0.334 -10.615  0.00  0.00    +0.121 HD
ATOM      6  N   UNK A  5       -7.889   0.260 -10.900  0.00  0.00    -0.307 N 
ATOM      7  C   UNK A  5       -7.009   1.201 -10.149  0.00  0.00    +0.123 C 
ATOM      8  C   UNK A  5       -7.070   1.057  -8.614  0.00  0.00    +0.067 C 
ATOM      9  C   UNK A  3       -1.563  -2.265  -7.936  0.00  0.00    +0.195 C 
ATOM     10  C   UNK A  3       -1.778  -3.251  -9.115  0.00  0.00    +0.163 C 
ATOM     11  O   UNK A  3       -1.432  -4.435  -9.013  0.00  0.00    -0.295 OA
ATOM     12  C   UNK A  3       -2.395  -2.779 -10.445  0.00  0.00    +0.083 C 
ATOM     13  C   UNK A  3       -2.479  -1.026  -8.106  0.00  0.00    +0.059 C 
ATOM     14  C   UNK A  5       -3.980  -1.096  -7.759  0.00  0.00    +0.000 A 
ATOM     15  C   UNK A  5       -4.564  -1.971  -6.833  0.00  0.00    +0.120 A 
ATOM     16  C   UNK A  5       -5.918  -1.869  -6.483  0.00  0.00    -0.018 A 
ATOM     17  C   UNK A  5       -6.731  -0.907  -7.076  0.00  0.00    -0.055 A 
ATOM     18  C   UNK A  5       -4.826  -0.092  -8.284  0.00  0.00    -0.052 A 
ATOM     19  C   UNK A  3       -2.133  -0.447  -9.516  0.00  0.00    +0.017 C 
ATOM     20  C   UNK A  5       -6.200  -0.028  -8.015  0.00  0.00    -0.045 A 
ATOM     21  C   ALA A  4       -7.725  -0.677 -11.879  0.00  0.00    +0.234 C 
ATOM     22  O   ALA A  4       -8.697  -0.845 -12.613  0.00  0.00    -0.274 OA
ATOM     23  CB  ALA A  4       -6.775  -2.747 -12.986  0.00  0.00    -0.036 C 
ATOM     24  CA  ALA A  4       -6.477  -1.623 -11.999  0.00  0.00    +0.097 C 
ATOM     25  O   UNK A  3       -3.920  -2.529 -13.316  0.00  0.00    -0.274 OA
ATOM     26  C   UNK A  3       -2.813  -1.293 -10.579  0.00  0.00    +0.026 C 
ENDROOT
BRANCH   1  28
ATOM     27  C   GLY A  2       -1.568   1.342 -12.851  0.00  0.00    +0.233 C 
ATOM     28  N   UNK A  3       -2.655   0.776 -12.189  0.00  0.00    -0.291 N 
ATOM     29  C   UNK A  3       -3.697   1.626 -11.677  0.00  0.00    +0.133 C 
ATOM     30  O   GLY A  2       -0.620   0.664 -13.254  0.00  0.00    -0.274 OA
BRANCH  27  31
ATOM     31  CA  GLY A  2       -1.602   2.890 -13.020  0.00  0.00    +0.200 C 
BRANCH  31  33
ATOM     32  C   ALA A  1       -1.447   3.306 -15.451  0.00  0.00    +0.233 C 
ATOM     33  N   GLY A  2       -2.141   3.425 -14.250  0.00  0.00    -0.305 N 
ATOM     34  H   GLY A  2       -3.013   3.881 -14.238  0.00  0.00    +0.149 HD
ATOM     35  O   ALA A  1       -0.241   3.051 -15.511  0.00  0.00    -0.274 OA
BRANCH  32  36
ATOM     36  CA  ALA A  1       -2.275   3.539 -16.762  0.00  0.00    +0.156 C 
ATOM     37  CB  ALA A  1       -1.419   4.144 -17.875  0.00  0.00    +0.038 C 
BRANCH  36  39
ATOM     38  C   UNK A  0       -4.793   3.366 -16.566  0.00  0.00    +0.236 C 
ATOM     39  N   ALA A  1       -3.626   4.091 -16.698  0.00  0.00    -0.303 N 
ATOM     40  H   ALA A  1       -3.711   5.070 -16.754  0.00  0.00    +0.149 HD
ATOM     41  O   UNK A  0       -4.791   2.112 -16.606  0.00  0.00    -0.274 OA
BRANCH  38  42
ATOM     42  C   UNK A  0       -6.106   4.174 -16.656  0.00  0.00    +0.187 C 
BRANCH  42  43
ATOM     43  N   UNK A  0       -6.661   4.170 -18.036  0.00  0.00    -0.291 N 
ATOM     44  C   UNK A  0       -6.460   5.123 -19.034  0.00  0.00    +0.213 C 
ATOM     45  C   UNK A  0       -5.561   6.290 -18.789  0.00  0.00    +0.109 C 
ATOM     46  O   UNK A  0       -6.982   5.018 -20.140  0.00  0.00    -0.276 OA
ATOM     47  C   UNK A  0       -7.701   3.167 -18.288  0.00  0.00    +0.133 C 
ENDBRANCH  42  43
BRANCH  42  48
ATOM     48  C   UNK A  0       -7.090   4.077 -15.461  0.00  0.00    +0.187 C 
BRANCH  48  49
ATOM     49  O   UNK A  0       -6.902   2.970 -14.592  0.00  0.00    -0.393 OA
ATOM     50  H   UNK A  0       -7.430   3.097 -13.788  0.00  0.00    +0.209 HD
ENDBRANCH  48  49
ENDBRANCH  42  48
ENDBRANCH  38  42
ENDBRANCH  36  39
ENDBRANCH  32  36
ENDBRANCH  31  33
ENDBRANCH  27  31
ENDBRANCH   1  28
BRANCH   7  51
ATOM     51  C   UNK A  5       -7.424   2.696 -10.435  0.00  0.00    +0.062 C 
ATOM     52  O   UNK A  5       -7.629   2.981 -11.665  0.00  0.00    -0.548 OA
ATOM     53  O   UNK A  5       -7.452   3.431  -9.421  0.00  0.00    -0.548 OA
ENDBRANCH   7  51
BRANCH  15  54
ATOM     54  O   UNK A  5       -3.814  -2.920  -6.206  0.00  0.00    -0.509 OA
ATOM     55  H   UNK A  5       -4.134  -3.798  -6.132  0.00  0.00    +0.236 HD
ENDBRANCH  15  54
BRANCH   9  56
ATOM     56  O   UNK A  3       -0.157  -1.887  -7.826  0.00  0.00    -0.337 OA
BRANCH  56  60
ATOM     57  C   UNK A  3        1.047  -1.977  -3.386  0.00  0.00    +0.016 C 
ATOM     58  C   UNK A  3        1.233  -1.274  -4.724  0.00  0.00    +0.149 C 
ATOM     59  O   UNK A  3        0.040  -1.429  -5.501  0.00  0.00    -0.343 OA
ATOM     60  C   UNK A  3        0.110  -0.878  -6.831  0.00  0.00    +0.282 C 
ATOM     61  C   UNK A  3        1.421  -0.081  -7.080  0.00  0.00    +0.201 C 
ATOM     62  C   UNK A  3        2.660  -0.928  -6.781  0.00  0.00    +0.179 C 
ATOM     63  C   UNK A  3        2.459  -1.784  -5.512  0.00  0.00    +0.174 C 
BRANCH  61  64
ATOM     64  O   UNK A  3        1.498   0.577  -8.345  0.00  0.00    -0.384 OA
ATOM     65  H   UNK A  3        1.687   1.519  -8.208  0.00  0.00    +0.210 HD
ENDBRANCH  61  64
BRANCH  62  66
ATOM     66  O   UNK A  3        3.009  -1.725  -7.916  0.00  0.00    -0.386 OA
ATOM     67  H   UNK A  3        3.972  -1.836  -7.950  0.00  0.00    +0.210 HD
ENDBRANCH  62  66
BRANCH  63  68
ATOM     68  O   UNK A  3        2.333  -3.156  -5.911  0.00  0.00    -0.387 OA
ATOM     69  H   UNK A  3        3.213  -3.522  -6.093  0.00  0.00    +0.210 HD
ENDBRANCH  63  68
ENDBRANCH  56  60
ENDBRANCH   9  56
TORSDOF 16
ENDMDL
MODEL 5
REMARK VINA RESULT:    -8.094      1.394      2.100
REMARK INTER + INTRA:         -16.972
REMARK INTER:                 -13.525
REMARK INTRA:                  -3.447
REMARK UNBOUND:                -2.490
WARNING: damped steplength 0.00759438 to 0.00666589
REMARK  Name = /tmp/RJWTFN0
REMARK                            x       y       z     vdW  Elec       q    Type
REMARK                         _______ _______ _______ _____ _____    ______ ____
ROOT
ATOM      1  C   UNK A  3       -2.454  -0.868 -12.035  0.00  0.00    +0.165 C 
ATOM      2  C   UNK A  3       -3.681  -1.613 -12.747  0.00  0.00    +0.234 C 
ATOM      3  N   ALA A  4       -4.934  -1.123 -12.347  0.00  0.00    -0.304 N 
ATOM      4  H   ALA A  4       -4.996  -0.148 -12.227  0.00  0.00    +0.273 HD
ATOM      5  H   UNK A  5       -8.587   0.013 -10.768  0.00  0.00    +0.121 HD
ATOM      6  N   UNK A  5       -7.638  -0.030 -11.024  0.00  0.00    -0.307 N 
ATOM      7  C   UNK A  5       -6.809   0.934 -10.245  0.00  0.00    +0.123 C 
ATOM      8  C   UNK A  5       -6.911   0.781  -8.713  0.00  0.00    +0.067 C 
ATOM      9  C   UNK A  3       -1.326  -2.373  -7.885  0.00  0.00    +0.195 C 
ATOM     10  C   UNK A  3       -1.476  -3.360  -9.074  0.00  0.00    +0.163 C 
ATOM     11  O   UNK A  3       -1.097  -4.534  -8.965  0.00  0.00    -0.295 OA
ATOM     12  C   UNK A  3       -2.068  -2.902 -10.419  0.00  0.00    +0.083 C 
ATOM     13  C   UNK A  3       -2.275  -1.162  -8.078  0.00  0.00    +0.059 C 
ATOM     14  C   UNK A  5       -3.782  -1.280  -7.775  0.00  0.00    +0.000 A 
ATOM     15  C   UNK A  5       -4.366  -2.177  -6.870  0.00  0.00    +0.120 A 
ATOM     16  C   UNK A  5       -5.733  -2.118  -6.559  0.00  0.00    -0.018 A 
ATOM     17  C   UNK A  5       -6.556  -1.179  -7.173  0.00  0.00    -0.055 A 
ATOM     18  C   UNK A  5       -4.643  -0.300  -8.321  0.00  0.00    -0.052 A 
ATOM     19  C   UNK A  3       -1.905  -0.566  -9.474  0.00  0.00    +0.017 C 
ATOM     20  C   UNK A  5       -6.026  -0.280  -8.093  0.00  0.00    -0.045 A 
ATOM     21  C   ALA A  4       -7.416  -0.958 -12.002  0.00  0.00    +0.234 C 
ATOM     22  O   ALA A  4       -8.361  -1.152 -12.765  0.00  0.00    -0.274 OA
ATOM     23  CB  ALA A  4       -6.370  -2.992 -13.088  0.00  0.00    -0.036 C 
ATOM     24  CA  ALA A  4       -6.136  -1.864 -12.088  0.00  0.00    +0.097 C 
ATOM     25  O   UNK A  3       -3.516  -2.685 -13.333  0.00  0.00    -0.274 OA
ATOM     26  C   UNK A  3       -2.528  -1.428 -10.560  0.00  0.00    +0.026 C 
ENDROOT
BRANCH   1  28
ATOM     27  C   GLY A  2       -1.399   1.246 -12.940  0.00  0.00    +0.233 C 
ATOM     28  N   UNK A  3       -2.386   0.652 -12.157  0.00  0.00    -0.291 N 
ATOM     29  C   UNK A  3       -3.371   1.476 -11.508  0.00  0.00    +0.133 C 
ATOM     30  O   GLY A  2       -0.498   0.591 -13.467  0.00  0.00    -0.274 OA
BRANCH  27  31
ATOM     31  CA  GLY A  2       -1.481   2.795 -13.081  0.00  0.00    +0.200 C 
BRANCH  31  33
ATOM     32  C   ALA A  1       -2.352   3.303 -15.338  0.00  0.00    +0.233 C 
ATOM     33  N   GLY A  2       -2.496   3.343 -13.953  0.00  0.00    -0.305 N 
ATOM     34  H   GLY A  2       -3.302   3.750 -13.562  0.00  0.00    +0.149 HD
ATOM     35  O   ALA A  1       -1.269   3.116 -15.899  0.00  0.00    -0.274 OA
BRANCH  32  36
ATOM     36  CA  ALA A  1       -3.652   3.537 -16.182  0.00  0.00    +0.156 C 
ATOM     37  CB  ALA A  1       -4.559   4.593 -15.549  0.00  0.00    +0.038 C 
BRANCH  36  39
ATOM     38  C   UNK A  0       -4.876   1.325 -16.049  0.00  0.00    +0.236 C 
ATOM     39  N   ALA A  1       -4.382   2.406 -16.750  0.00  0.00    -0.303 N 
ATOM     40  H   ALA A  1       -4.534   2.416 -17.722  0.00  0.00    +0.149 HD
ATOM     41  O   UNK A  0       -4.628   1.169 -14.829  0.00  0.00    -0.274 OA
BRANCH  38  42
ATOM     42  C   UNK A  0       -5.496   0.193 -16.898  0.00  0.00    +0.187 C 
BRANCH  42  43
ATOM     43  N   UNK A  0       -4.461  -0.545 -17.669  0.00  0.00    -0.291 N 
ATOM     44  C   UNK A  0       -4.232  -0.497 -19.045  0.00  0.00    +0.213 C 
ATOM     45  C   UNK A  0       -5.044   0.411 -19.910  0.00  0.00    +0.109 C 
ATOM     46  O   UNK A  0       -3.350  -1.163 -19.575  0.00  0.00    -0.276 OA
ATOM     47  C   UNK A  0       -3.758  -1.595 -16.926  0.00  0.00    +0.133 C 
ENDBRANCH  42  43
BRANCH  42  48
ATOM     48  C   UNK A  0       -6.668  -0.609 -16.275  0.00  0.00    +0.187 C 
BRANCH  48  49
ATOM     49  O   UNK A  0       -7.432   0.073 -15.292  0.00  0.00    -0.393 OA
ATOM     50  H   UNK A  0       -8.080  -0.537 -14.905  0.00  0.00    +0.209 HD
ENDBRANCH  48  49
ENDBRANCH  42  48
ENDBRANCH  38  42
ENDBRANCH  36  39
ENDBRANCH  32  36
ENDBRANCH  31  33
ENDBRANCH  27  31
ENDBRANCH   1  28
BRANCH   7  51
ATOM     51  C   UNK A  5       -7.261   2.417 -10.537  0.00  0.00    +0.062 C 
ATOM     52  O   UNK A  5       -7.235   3.205  -9.530  0.00  0.00    -0.548 OA
ATOM     53  O   UNK A  5       -7.636   2.624 -11.714  0.00  0.00    -0.548 OA
ENDBRANCH   7  51
BRANCH  15  54
ATOM     54  O   UNK A  5       -3.606  -3.106  -6.224  0.00  0.00    -0.509 OA
ATOM     55  H   UNK A  5       -3.941  -3.969  -6.082  0.00  0.00    +0.236 HD
ENDBRANCH  15  54
BRANCH   9  56
ATOM     56  O   UNK A  3        0.064  -1.953  -7.732  0.00  0.00    -0.337 OA
BRANCH  56  60
ATOM     57  C   UNK A  3        1.334  -1.707  -3.317  0.00  0.00    +0.016 C 
ATOM     58  C   UNK A  3        1.441  -1.062  -4.692  0.00  0.00    +0.149 C 
ATOM     59  O   UNK A  3        0.254  -1.358  -5.438  0.00  0.00    -0.343 OA
ATOM     60  C   UNK A  3        0.258  -0.874  -6.795  0.00  0.00    +0.282 C 
ATOM     61  C   UNK A  3        1.491   0.017  -7.109  0.00  0.00    +0.201 C 
ATOM     62  C   UNK A  3        2.803  -0.704  -6.791  0.00  0.00    +0.179 C 
ATOM     63  C   UNK A  3        2.694  -1.506  -5.476  0.00  0.00    +0.174 C 
BRANCH  61  64
ATOM     64  O   UNK A  3        1.494   0.612  -8.407  0.00  0.00    -0.384 OA
ATOM     65  H   UNK A  3        1.387   1.573  -8.323  0.00  0.00    +0.210 HD
ENDBRANCH  61  64
BRANCH  62  66
ATOM     66  O   UNK A  3        3.202  -1.528  -7.890  0.00  0.00    -0.386 OA
ATOM     67  H   UNK A  3        3.461  -2.403  -7.562  0.00  0.00    +0.210 HD
ENDBRANCH  62  66
BRANCH  63  68
ATOM     68  O   UNK A  3        2.680  -2.904  -5.802  0.00  0.00    -0.387 OA
ATOM     69  H   UNK A  3        2.431  -3.416  -5.017  0.00  0.00    +0.210 HD
ENDBRANCH  63  68
ENDBRANCH  56  60
ENDBRANCH   9  56
TORSDOF 16
ENDMDL
