WARNING: damped steplength 0.00759438 to 0.00666589
REMARK  Name = /tmp/RJWTFN0
REMARK                            x       y       z     vdW  Elec       q    Type
REMARK                         _______ _______ _______ _____ _____    ______ ____
ROOT
ATOM      1  C   UNK A  3       -1.842  -7.646 -11.452  0.00  0.00    +0.165 C 
ATOM      2  C   UNK A  3       -1.693  -7.943 -13.020  0.00  0.00    +0.234 C 
ATOM      3  N   ALA A  4       -0.560  -8.710 -13.333  0.00  0.00    -0.304 N 
ATOM      4  H   ALA A  4       -0.347  -9.438 -12.706  0.00  0.00    +0.273 HD
ATOM      5  H   UNK A  5        3.039 -10.537 -14.248  0.00  0.00    +0.121 HD
ATOM      6  N   UNK A  5        2.244 -10.189 -13.784  0.00  0.00    -0.307 N 
ATOM      7  C   UNK A  5        2.414 -10.212 -12.303  0.00  0.00    +0.123 C 
ATOM      8  C   UNK A  5        3.656  -9.457 -11.784  0.00  0.00    +0.067 C 
ATOM      9  C   UNK A  3        0.557  -4.126  -9.837  0.00  0.00    +0.195 C 
ATOM     10  C   UNK A  3       -0.356  -3.960 -11.081  0.00  0.00    +0.163 C 
ATOM     11  O   UNK A  3       -0.606  -2.833 -11.530  0.00  0.00    -0.295 OA
ATOM     12  C   UNK A  3       -0.996  -5.181 -11.768  0.00  0.00    +0.083 C 
ATOM     13  C   UNK A  3        1.099  -5.576  -9.766  0.00  0.00    +0.059 C 
ATOM     14  C   UNK A  5        2.264  -6.032 -10.668  0.00  0.00    +0.000 A 
ATOM     15  C   UNK A  5        3.257  -5.200 -11.203  0.00  0.00    +0.120 A 
ATOM     16  C   UNK A  5        4.355  -5.725 -11.899  0.00  0.00    -0.018 A 
ATOM     17  C   UNK A  5        4.470  -7.097 -12.106  0.00  0.00    -0.055 A 
ATOM     18  C   UNK A  5        2.458  -7.422 -10.843  0.00  0.00    -0.052 A 
ATOM     19  C   UNK A  3       -0.168  -6.492  -9.775  0.00  0.00    +0.017 C 
ATOM     20  C   UNK A  5        3.499  -7.961 -11.611  0.00  0.00    -0.045 A 
ATOM     21  C   ALA A  4        1.268  -9.807 -14.660  0.00  0.00    +0.234 C 
ATOM     22  O   ALA A  4        1.248 -10.424 -15.723  0.00  0.00    -0.274 OA
ATOM     23  CB  ALA A  4       -0.397  -8.245 -15.755  0.00  0.00    -0.036 C 
ATOM     24  CA  ALA A  4        0.328  -8.566 -14.451  0.00  0.00    +0.097 C 
ATOM     25  O   UNK A  3       -2.341  -7.300 -13.848  0.00  0.00    -0.274 OA
ATOM     26  C   UNK A  3       -0.696  -6.590 -11.196  0.00  0.00    +0.026 C 
ENDROOT
BRANCH   1  28
ATOM     27  C   GLY A  2       -2.926  -9.042  -9.641  0.00  0.00    +0.233 C 
ATOM     28  N   UNK A  3       -1.853  -8.845 -10.506  0.00  0.00    -0.291 N 
ATOM     29  C   UNK A  3       -0.781  -9.805 -10.541  0.00  0.00    +0.133 C 
ATOM     30  O   GLY A  2       -3.838  -8.220  -9.529  0.00  0.00    -0.274 OA
BRANCH  27  31
ATOM     31  CA  GLY A  2       -2.888 -10.348  -8.793  0.00  0.00    +0.200 C 
BRANCH  31  33
ATOM     32  C   ALA A  1       -2.636  -9.817  -6.393  0.00  0.00    +0.233 C 
ATOM     33  N   GLY A  2       -3.410 -10.297  -7.446  0.00  0.00    -0.305 N 
ATOM     34  H   GLY A  2       -4.328 -10.605  -7.271  0.00  0.00    +0.149 HD
ATOM     35  O   ALA A  1       -1.407  -9.717  -6.449  0.00  0.00    -0.274 OA
BRANCH  32  36
ATOM     36  CA  ALA A  1       -3.405  -9.421  -5.085  0.00  0.00    +0.156 C 
ATOM     37  CB  ALA A  1       -2.706  -9.949  -3.832  0.00  0.00    +0.038 C 
BRANCH  36  39
ATOM     38  C   UNK A  0       -5.695  -8.701  -4.283  0.00  0.00    +0.236 C 
ATOM     39  N   ALA A  1       -4.862  -9.513  -5.024  0.00  0.00    -0.303 N 
ATOM     40  H   ALA A  1       -5.287 -10.219  -5.562  0.00  0.00    +0.149 HD
ATOM     41  O   UNK A  0       -5.236  -7.855  -3.478  0.00  0.00    -0.274 OA
BRANCH  38  42
ATOM     42  C   UNK A  0       -7.192  -9.086  -4.283  0.00  0.00    +0.187 C 
BRANCH  42  43
ATOM     43  N   UNK A  0       -8.060  -7.913  -4.567  0.00  0.00    -0.291 N 
ATOM     44  C   UNK A  0       -8.009  -7.067  -5.676  0.00  0.00    +0.213 C 
ATOM     45  C   UNK A  0       -7.032  -7.327  -6.774  0.00  0.00    +0.109 C 
ATOM     46  O   UNK A  0       -8.776  -6.117  -5.798  0.00  0.00    -0.276 OA
ATOM     47  C   UNK A  0       -8.909  -7.480  -3.452  0.00  0.00    +0.133 C 
ENDBRANCH  42  43
BRANCH  42  48
ATOM     48  C   UNK A  0       -7.578 -10.459  -4.892  0.00  0.00    +0.187 C 
BRANCH  48  49
ATOM     49  O   UNK A  0       -7.225 -10.654  -6.254  0.00  0.00    -0.393 OA
ATOM     50  H   UNK A  0       -7.704 -10.015  -6.807  0.00  0.00    +0.209 HD
ENDBRANCH  48  49
ENDBRANCH  42  48
ENDBRANCH  38  42
ENDBRANCH  36  39
ENDBRANCH  32  36
ENDBRANCH  31  33
ENDBRANCH  27  31
ENDBRANCH   1  28
BRANCH   7  51
ATOM     51  C   UNK A  5        2.592 -11.692 -11.788  0.00  0.00    +0.062 C 
ATOM     52  O   UNK A  5        3.746 -11.970 -11.309  0.00  0.00    -0.548 OA
ATOM     53  O   UNK A  5        1.591 -12.426 -11.958  0.00  0.00    -0.548 OA
ENDBRANCH   7  51
BRANCH  15  54
ATOM     54  O   UNK A  5        3.208  -3.851 -11.015  0.00  0.00    -0.509 OA
ATOM     55  H   UNK A  5        2.488  -3.469 -10.554  0.00  0.00    +0.236 HD
ENDBRANCH  15  54
BRANCH   9  56
ATOM     56  O   UNK A  3       -0.155  -3.754  -8.618  0.00  0.00    -0.337 OA
BRANCH  56  60
ATOM     57  C   UNK A  3        2.773  -0.411  -7.426  0.00  0.00    +0.016 C 
ATOM     58  C   UNK A  3        1.717  -1.391  -6.932  0.00  0.00    +0.149 C 
ATOM     59  O   UNK A  3        1.713  -2.540  -7.787  0.00  0.00    -0.343 OA
ATOM     60  C   UNK A  3        0.699  -3.517  -7.480  0.00  0.00    +0.282 C 
ATOM     61  C   UNK A  3       -0.073  -3.188  -6.172  0.00  0.00    +0.201 C 
ATOM     62  C   UNK A  3       -0.673  -1.781  -6.212  0.00  0.00    +0.179 C 
ATOM     63  C   UNK A  3        0.305  -0.774  -6.853  0.00  0.00    +0.174 C 
BRANCH  61  64
ATOM     64  O   UNK A  3       -1.017  -4.176  -5.762  0.00  0.00    -0.384 OA
ATOM     65  H   UNK A  3       -1.735  -4.227  -6.413  0.00  0.00    +0.210 HD
ENDBRANCH  61  64
BRANCH  62  66
ATOM     66  O   UNK A  3       -1.941  -1.795  -6.876  0.00  0.00    -0.386 OA
ATOM     67  H   UNK A  3       -1.822  -2.088  -7.793  0.00  0.00    +0.210 HD
ENDBRANCH  62  66
BRANCH  63  68
ATOM     68  O   UNK A  3       -0.213  -0.401  -8.139  0.00  0.00    -0.387 OA
ATOM     69  H   UNK A  3       -0.300  -1.192  -8.694  0.00  0.00    +0.210 HD
ENDBRANCH  63  68
ENDBRANCH  56  60
ENDBRANCH   9  56
TORSDOF 16
