MODEL 1
REMARK VINA RESULT:    -7.816      0.000      0.000
REMARK INTER + INTRA:          -9.484
REMARK INTER:                  -9.404
REMARK INTRA:                  -0.080
REMARK UNBOUND:                -0.298
REMARK SMILES O=C(Nc1ccc2c(c1)OC(F)(F)O2)Nc1ccc(Cl)c(C(F)(F)F)c1
REMARK SMILES IDX 20 1 16 2 21 3 26 4 17 5 19 6 18 7 22 8 23 9 24 10 25 11
REMARK SMILES IDX 15 12 2 13 1 15 3 16 4 18 9 19 5 20 8 21 6 22 10 23 7 24
REMARK SMILES IDX 11 25 14 26 12 27 13 28
REMARK H PARENT 15 14 3 17
REMARK Flexibility Score: inf
ROOT
ATOM      1  Cl  UNL     1     -26.648  -0.570 -15.253  1.00  0.00    -0.084 Cl
ATOM      2  C   UNL     1     -22.717   0.976 -13.658  1.00  0.00     0.043 A 
ATOM      3  C   UNL     1     -24.109  -0.887 -14.315  1.00  0.00     0.076 A 
ATOM      4  C   UNL     1     -22.898  -0.397 -13.824  1.00  0.00     0.040 A 
ATOM      5  C   UNL     1     -23.745   1.860 -13.984  1.00  0.00     0.028 A 
ATOM      6  C   UNL     1     -25.138  -0.003 -14.641  1.00  0.00     0.053 A 
ATOM      7  C   UNL     1     -24.957   1.371 -14.474  1.00  0.00     0.023 A 
ENDROOT
BRANCH   3   8
ATOM      8  C   UNL     1     -24.264  -2.364 -14.480  1.00  0.00     0.417 C 
ATOM      9  F   UNL     1     -24.077  -2.767 -15.770  1.00  0.00    -0.166 F 
ATOM     10  F   UNL     1     -23.380  -3.090 -13.736  1.00  0.00    -0.166 F 
ATOM     11  F   UNL     1     -25.497  -2.825 -14.124  1.00  0.00    -0.166 F 
ENDBRANCH   3   8
BRANCH   2  12
ATOM     12  N   UNL     1     -21.489   1.472 -13.159  1.00  0.00    -0.308 N 
ATOM     13  C   UNL     1     -20.666   0.906 -12.172  1.00  0.00     0.323 C 
ATOM     14  H   UNL     1     -21.173   2.345 -13.571  1.00  0.00     0.171 HD
ATOM     15  O   UNL     1     -20.893  -0.140 -11.572  1.00  0.00    -0.248 OA
ATOM     16  N   UNL     1     -19.527   1.722 -11.966  1.00  0.00    -0.308 N 
ATOM     17  H   UNL     1     -19.473   2.563 -12.537  1.00  0.00     0.171 HD
BRANCH  16  18
ATOM     18  C   UNL     1     -18.464   1.529 -11.083  1.00  0.00     0.046 A 
ATOM     19  C   UNL     1     -17.234   1.079 -11.568  1.00  0.00     0.077 A 
ATOM     20  C   UNL     1     -18.643   1.789  -9.712  1.00  0.00     0.030 A 
ATOM     21  C   UNL     1     -16.213   0.902 -10.658  1.00  0.00     0.174 A 
ATOM     22  C   UNL     1     -17.591   1.602  -8.811  1.00  0.00     0.053 A 
ATOM     23  O   UNL     1     -14.953   0.473 -10.945  1.00  0.00    -0.395 OA
ATOM     24  C   UNL     1     -16.387   1.156  -9.315  1.00  0.00     0.172 A 
ATOM     25  C   UNL     1     -14.371   0.490  -9.634  1.00  0.00     0.586 C 
ATOM     26  O   UNL     1     -15.258   0.920  -8.592  1.00  0.00    -0.395 OA
ATOM     27  F   UNL     1     -13.290   1.311  -9.650  1.00  0.00    -0.125 F 
ATOM     28  F   UNL     1     -13.930  -0.759  -9.340  1.00  0.00    -0.125 F 
ENDBRANCH  16  18
ENDBRANCH   2  12
TORSDOF 3
ENDMDL
MODEL 2
REMARK VINA RESULT:    -7.560      4.204     10.141
REMARK INTER + INTRA:          -9.184
REMARK INTER:                  -8.813
REMARK INTRA:                  -0.371
REMARK UNBOUND:                -0.298
REMARK SMILES O=C(Nc1ccc2c(c1)OC(F)(F)O2)Nc1ccc(Cl)c(C(F)(F)F)c1
REMARK SMILES IDX 20 1 16 2 21 3 26 4 17 5 19 6 18 7 22 8 23 9 24 10 25 11
REMARK SMILES IDX 15 12 2 13 1 15 3 16 4 18 9 19 5 20 8 21 6 22 10 23 7 24
REMARK SMILES IDX 11 25 14 26 12 27 13 28
REMARK H PARENT 15 14 3 17
REMARK Flexibility Score: inf
ROOT
ATOM      1  Cl  UNL     1     -10.948   2.903  -9.410  1.00  0.00    -0.084 Cl
ATOM      2  C   UNL     1     -15.148   1.244  -9.435  1.00  0.00     0.043 A 
ATOM      3  C   UNL     1     -13.505   2.738  -8.482  1.00  0.00     0.076 A 
ATOM      4  C   UNL     1     -14.800   2.219  -8.500  1.00  0.00     0.040 A 
ATOM      5  C   UNL     1     -14.201   0.789 -10.353  1.00  0.00     0.028 A 
ATOM      6  C   UNL     1     -12.559   2.283  -9.400  1.00  0.00     0.053 A 
ATOM      7  C   UNL     1     -12.906   1.307 -10.335  1.00  0.00     0.023 A 
ENDROOT
BRANCH   3   8
ATOM      8  C   UNL     1     -13.172   3.782  -7.466  1.00  0.00     0.417 C 
ATOM      9  F   UNL     1     -12.687   4.925  -8.032  1.00  0.00    -0.166 F 
ATOM     10  F   UNL     1     -14.243   4.169  -6.714  1.00  0.00    -0.166 F 
ATOM     11  F   UNL     1     -12.226   3.384  -6.567  1.00  0.00    -0.166 F 
ENDBRANCH   3   8
BRANCH   2  12
ATOM     12  N   UNL     1     -16.460   0.716  -9.452  1.00  0.00    -0.308 N 
ATOM     13  C   UNL     1     -17.446   0.882 -10.439  1.00  0.00     0.323 C 
ATOM     14  H   UNL     1     -16.712   0.149  -8.647  1.00  0.00     0.171 HD
ATOM     15  O   UNL     1     -17.314   1.531 -11.472  1.00  0.00    -0.248 OA
ATOM     16  N   UNL     1     -18.622   0.187 -10.068  1.00  0.00    -0.308 N 
ATOM     17  H   UNL     1     -18.585  -0.309  -9.181  1.00  0.00     0.171 HD
BRANCH  16  18
ATOM     18  C   UNL     1     -19.831   0.090 -10.759  1.00  0.00     0.046 A 
ATOM     19  C   UNL     1     -19.845  -0.416 -12.061  1.00  0.00     0.077 A 
ATOM     20  C   UNL     1     -21.023   0.503 -10.138  1.00  0.00     0.030 A 
ATOM     21  C   UNL     1     -21.062  -0.493 -12.705  1.00  0.00     0.174 A 
ATOM     22  C   UNL     1     -22.243   0.414 -10.812  1.00  0.00     0.053 A 
ATOM     23  O   UNL     1     -21.270  -0.958 -13.969  1.00  0.00    -0.395 OA
ATOM     24  C   UNL     1     -22.231  -0.088 -12.097  1.00  0.00     0.172 A 
ATOM     25  C   UNL     1     -22.691  -0.793 -14.073  1.00  0.00     0.586 C 
ATOM     26  O   UNL     1     -23.317  -0.249 -12.901  1.00  0.00    -0.395 OA
ATOM     27  F   UNL     1     -23.249  -2.002 -14.339  1.00  0.00    -0.125 F 
ATOM     28  F   UNL     1     -22.958   0.020 -15.124  1.00  0.00    -0.125 F 
ENDBRANCH  16  18
ENDBRANCH   2  12
TORSDOF 3
ENDMDL
MODEL 3
REMARK VINA RESULT:    -7.551      1.888      2.360
REMARK INTER + INTRA:          -9.174
REMARK INTER:                  -8.840
REMARK INTRA:                  -0.333
REMARK UNBOUND:                -0.298
REMARK SMILES O=C(Nc1ccc2c(c1)OC(F)(F)O2)Nc1ccc(Cl)c(C(F)(F)F)c1
REMARK SMILES IDX 20 1 16 2 21 3 26 4 17 5 19 6 18 7 22 8 23 9 24 10 25 11
REMARK SMILES IDX 15 12 2 13 1 15 3 16 4 18 9 19 5 20 8 21 6 22 10 23 7 24
REMARK SMILES IDX 11 25 14 26 12 27 13 28
REMARK H PARENT 15 14 3 17
REMARK Flexibility Score: inf
ROOT
ATOM      1  Cl  UNL     1     -25.380  -3.682 -12.720  1.00  0.00    -0.084 Cl
ATOM      2  C   UNL     1     -21.955  -0.861 -11.878  1.00  0.00     0.043 A 
ATOM      3  C   UNL     1     -23.450  -1.906 -13.463  1.00  0.00     0.076 A 
ATOM      4  C   UNL     1     -22.394  -1.036 -13.190  1.00  0.00     0.040 A 
ATOM      5  C   UNL     1     -22.574  -1.555 -10.838  1.00  0.00     0.028 A 
ATOM      6  C   UNL     1     -24.069  -2.600 -12.422  1.00  0.00     0.053 A 
ATOM      7  C   UNL     1     -23.630  -2.425 -11.109  1.00  0.00     0.023 A 
ENDROOT
BRANCH   3   8
ATOM      8  C   UNL     1     -23.892  -2.065 -14.882  1.00  0.00     0.417 C 
ATOM      9  F   UNL     1     -24.017  -3.374 -15.246  1.00  0.00    -0.166 F 
ATOM     10  F   UNL     1     -25.103  -1.493 -15.142  1.00  0.00    -0.166 F 
ATOM     11  F   UNL     1     -23.031  -1.511 -15.784  1.00  0.00    -0.166 F 
ENDBRANCH   3   8
BRANCH   2  12
ATOM     12  N   UNL     1     -20.883   0.019 -11.602  1.00  0.00    -0.308 N 
ATOM     13  C   UNL     1     -19.707  -0.249 -10.884  1.00  0.00     0.323 C 
ATOM     14  H   UNL     1     -20.985   0.960 -11.974  1.00  0.00     0.171 HD
ATOM     15  O   UNL     1     -19.420  -1.326 -10.368  1.00  0.00    -0.248 OA
ATOM     16  N   UNL     1     -18.893   0.908 -10.838  1.00  0.00    -0.308 N 
ATOM     17  H   UNL     1     -19.261   1.730 -11.311  1.00  0.00     0.171 HD
BRANCH  16  18
ATOM     18  C   UNL     1     -17.648   1.075 -10.230  1.00  0.00     0.046 A 
ATOM     19  C   UNL     1     -16.483   0.798 -10.951  1.00  0.00     0.077 A 
ATOM     20  C   UNL     1     -17.578   1.519  -8.898  1.00  0.00     0.030 A 
ATOM     21  C   UNL     1     -15.276   0.977 -10.309  1.00  0.00     0.174 A 
ATOM     22  C   UNL     1     -16.342   1.692  -8.271  1.00  0.00     0.053 A 
ATOM     23  O   UNL     1     -14.044   0.760 -10.848  1.00  0.00    -0.395 OA
ATOM     24  C   UNL     1     -15.207   1.412  -9.003  1.00  0.00     0.172 A 
ATOM     25  C   UNL     1     -13.210   1.107  -9.734  1.00  0.00     0.586 C 
ATOM     26  O   UNL     1     -13.924   1.524  -8.561  1.00  0.00    -0.395 OA
ATOM     27  F   UNL     1     -12.376   2.108 -10.112  1.00  0.00    -0.125 F 
ATOM     28  F   UNL     1     -12.443   0.035  -9.416  1.00  0.00    -0.125 F 
ENDBRANCH  16  18
ENDBRANCH   2  12
TORSDOF 3
ENDMDL
MODEL 4
REMARK VINA RESULT:    -7.476      2.864      4.081
REMARK INTER + INTRA:          -9.085
REMARK INTER:                  -8.583
REMARK INTRA:                  -0.502
REMARK UNBOUND:                -0.298
REMARK SMILES O=C(Nc1ccc2c(c1)OC(F)(F)O2)Nc1ccc(Cl)c(C(F)(F)F)c1
REMARK SMILES IDX 20 1 16 2 21 3 26 4 17 5 19 6 18 7 22 8 23 9 24 10 25 11
REMARK SMILES IDX 15 12 2 13 1 15 3 16 4 18 9 19 5 20 8 21 6 22 10 23 7 24
REMARK SMILES IDX 11 25 14 26 12 27 13 28
REMARK H PARENT 15 14 3 17
REMARK Flexibility Score: inf
ROOT
ATOM      1  Cl  UNL     1     -24.009  -2.703 -12.703  1.00  0.00    -0.084 Cl
ATOM      2  C   UNL     1     -20.414  -1.264 -10.380  1.00  0.00     0.043 A 
ATOM      3  C   UNL     1     -21.907  -1.025 -12.264  1.00  0.00     0.076 A 
ATOM      4  C   UNL     1     -20.800  -0.588 -11.537  1.00  0.00     0.040 A 
ATOM      5  C   UNL     1     -21.138  -2.375  -9.947  1.00  0.00     0.028 A 
ATOM      6  C   UNL     1     -22.631  -2.136 -11.832  1.00  0.00     0.053 A 
ATOM      7  C   UNL     1     -22.246  -2.812 -10.674  1.00  0.00     0.023 A 
ENDROOT
BRANCH   3   8
ATOM      8  C   UNL     1     -22.289  -0.272 -13.498  1.00  0.00     0.417 C 
ATOM      9  F   UNL     1     -23.545   0.253 -13.422  1.00  0.00    -0.166 F 
ATOM     10  F   UNL     1     -21.465   0.781 -13.769  1.00  0.00    -0.166 F 
ATOM     11  F   UNL     1     -22.276  -1.038 -14.627  1.00  0.00    -0.166 F 
ENDBRANCH   3   8
BRANCH   2  12
ATOM     12  N   UNL     1     -19.290  -0.822  -9.644  1.00  0.00    -0.308 N 
ATOM     13  C   UNL     1     -17.942  -0.826 -10.039  1.00  0.00     0.323 C 
ATOM     14  H   UNL     1     -19.491  -0.460  -8.716  1.00  0.00     0.171 HD
ATOM     15  O   UNL     1     -17.521  -1.227 -11.120  1.00  0.00    -0.248 OA
ATOM     16  N   UNL     1     -17.133  -0.298  -9.004  1.00  0.00    -0.308 N 
ATOM     17  H   UNL     1     -17.623  -0.006  -8.162  1.00  0.00     0.171 HD
BRANCH  16  18
ATOM     18  C   UNL     1     -15.748  -0.124  -8.983  1.00  0.00     0.046 A 
ATOM     19  C   UNL     1     -15.209   1.153  -9.160  1.00  0.00     0.077 A 
ATOM     20  C   UNL     1     -14.910  -1.235  -8.785  1.00  0.00     0.030 A 
ATOM     21  C   UNL     1     -13.837   1.278  -9.132  1.00  0.00     0.174 A 
ATOM     22  C   UNL     1     -13.521  -1.081  -8.760  1.00  0.00     0.053 A 
ATOM     23  O   UNL     1     -13.136   2.436  -9.284  1.00  0.00    -0.395 OA
ATOM     24  C   UNL     1     -13.014   0.189  -8.938  1.00  0.00     0.172 A 
ATOM     25  C   UNL     1     -11.794   1.942  -9.164  1.00  0.00     0.586 C 
ATOM     26  O   UNL     1     -11.695   0.528  -8.943  1.00  0.00    -0.395 OA
ATOM     27  F   UNL     1     -11.186   2.585  -8.135  1.00  0.00    -0.125 F 
ATOM     28  F   UNL     1     -11.116   2.252 -10.297  1.00  0.00    -0.125 F 
ENDBRANCH  16  18
ENDBRANCH   2  12
TORSDOF 3
ENDMDL
MODEL 5
REMARK VINA RESULT:    -7.466      3.957      9.487
REMARK INTER + INTRA:          -9.074
REMARK INTER:                  -8.553
REMARK INTRA:                  -0.521
REMARK UNBOUND:                -0.298
REMARK SMILES O=C(Nc1ccc2c(c1)OC(F)(F)O2)Nc1ccc(Cl)c(C(F)(F)F)c1
REMARK SMILES IDX 20 1 16 2 21 3 26 4 17 5 19 6 18 7 22 8 23 9 24 10 25 11
REMARK SMILES IDX 15 12 2 13 1 15 3 16 4 18 9 19 5 20 8 21 6 22 10 23 7 24
REMARK SMILES IDX 11 25 14 26 12 27 13 28
REMARK H PARENT 15 14 3 17
REMARK Flexibility Score: inf
ROOT
ATOM      1  Cl  UNL     1     -15.497   0.271  -8.251  1.00  0.00    -0.084 Cl
ATOM      2  C   UNL     1     -18.590  -0.180 -11.510  1.00  0.00     0.043 A 
ATOM      3  C   UNL     1     -17.190  -1.183  -9.815  1.00  0.00     0.076 A 
ATOM      4  C   UNL     1     -18.147  -1.310 -10.822  1.00  0.00     0.040 A 
ATOM      5  C   UNL     1     -18.079   1.077 -11.188  1.00  0.00     0.028 A 
ATOM      6  C   UNL     1     -16.679   0.074  -9.493  1.00  0.00     0.053 A 
ATOM      7  C   UNL     1     -17.122   1.205 -10.181  1.00  0.00     0.023 A 
ENDROOT
BRANCH   3   8
ATOM      8  C   UNL     1     -16.743  -2.418  -9.101  1.00  0.00     0.417 C 
ATOM      9  F   UNL     1     -17.465  -3.518  -9.459  1.00  0.00    -0.166 F 
ATOM     10  F   UNL     1     -15.438  -2.740  -9.338  1.00  0.00    -0.166 F 
ATOM     11  F   UNL     1     -16.851  -2.330  -7.744  1.00  0.00    -0.166 F 
ENDBRANCH   3   8
BRANCH   2  12
ATOM     12  N   UNL     1     -19.559  -0.309 -12.533  1.00  0.00    -0.308 N 
ATOM     13  C   UNL     1     -20.944  -0.491 -12.394  1.00  0.00     0.323 C 
ATOM     14  H   UNL     1     -19.198  -0.263 -13.482  1.00  0.00     0.171 HD
ATOM     15  O   UNL     1     -21.546  -0.569 -11.327  1.00  0.00    -0.248 OA
ATOM     16  N   UNL     1     -21.551  -0.573 -13.670  1.00  0.00    -0.308 N 
ATOM     17  H   UNL     1     -20.924  -0.492 -14.467  1.00  0.00     0.171 HD
BRANCH  16  18
ATOM     18  C   UNL     1     -22.900  -0.751 -13.984  1.00  0.00     0.046 A 
ATOM     19  C   UNL     1     -23.647   0.329 -14.462  1.00  0.00     0.077 A 
ATOM     20  C   UNL     1     -23.493  -2.014 -13.815  1.00  0.00     0.030 A 
ATOM     21  C   UNL     1     -24.975   0.106 -14.759  1.00  0.00     0.174 A 
ATOM     22  C   UNL     1     -24.841  -2.213 -14.123  1.00  0.00     0.053 A 
ATOM     23  O   UNL     1     -25.854   1.033 -15.233  1.00  0.00    -0.395 OA
ATOM     24  C   UNL     1     -25.557  -1.132 -14.593  1.00  0.00     0.172 A 
ATOM     25  C   UNL     1     -27.039   0.232 -15.340  1.00  0.00     0.586 C 
ATOM     26  O   UNL     1     -26.873  -1.137 -14.944  1.00  0.00    -0.395 OA
ATOM     27  F   UNL     1     -27.467   0.261 -16.628  1.00  0.00    -0.125 F 
ATOM     28  F   UNL     1     -28.010   0.789 -14.575  1.00  0.00    -0.125 F 
ENDBRANCH  16  18
ENDBRANCH   2  12
TORSDOF 3
ENDMDL
MODEL 6
REMARK VINA RESULT:    -7.437      3.772      9.698
REMARK INTER + INTRA:          -9.040
REMARK INTER:                  -8.776
REMARK INTRA:                  -0.264
REMARK UNBOUND:                -0.298
REMARK SMILES O=C(Nc1ccc2c(c1)OC(F)(F)O2)Nc1ccc(Cl)c(C(F)(F)F)c1
REMARK SMILES IDX 20 1 16 2 21 3 26 4 17 5 19 6 18 7 22 8 23 9 24 10 25 11
REMARK SMILES IDX 15 12 2 13 1 15 3 16 4 18 9 19 5 20 8 21 6 22 10 23 7 24
REMARK SMILES IDX 11 25 14 26 12 27 13 28
REMARK H PARENT 15 14 3 17
REMARK Flexibility Score: inf
ROOT
ATOM      1  Cl  UNL     1     -13.309   1.181  -6.888  1.00  0.00    -0.084 Cl
ATOM      2  C   UNL     1     -17.005   1.044  -9.479  1.00  0.00     0.043 A 
ATOM      3  C   UNL     1     -14.600   1.168  -9.289  1.00  0.00     0.076 A 
ATOM      4  C   UNL     1     -15.748   1.123 -10.079  1.00  0.00     0.040 A 
ATOM      5  C   UNL     1     -17.113   1.007  -8.088  1.00  0.00     0.028 A 
ATOM      6  C   UNL     1     -14.707   1.131  -7.898  1.00  0.00     0.053 A 
ATOM      7  C   UNL     1     -15.964   1.052  -7.298  1.00  0.00     0.023 A 
ENDROOT
BRANCH   3   8
ATOM      8  C   UNL     1     -13.272   1.252  -9.970  1.00  0.00     0.417 C 
ATOM      9  F   UNL     1     -12.633   2.432  -9.724  1.00  0.00    -0.166 F 
ATOM     10  F   UNL     1     -12.401   0.275  -9.586  1.00  0.00    -0.166 F 
ATOM     11  F   UNL     1     -13.350   1.150 -11.328  1.00  0.00    -0.166 F 
ENDBRANCH   3   8
BRANCH   2  12
ATOM     12  N   UNL     1     -18.170   1.000 -10.280  1.00  0.00    -0.308 N 
ATOM     13  C   UNL     1     -18.976  -0.111 -10.574  1.00  0.00     0.323 C 
ATOM     14  H   UNL     1     -18.451   1.888 -10.688  1.00  0.00     0.171 HD
ATOM     15  O   UNL     1     -18.786  -1.253 -10.167  1.00  0.00    -0.248 OA
ATOM     16  N   UNL     1     -20.048   0.277 -11.414  1.00  0.00    -0.308 N 
ATOM     17  H   UNL     1     -20.077   1.261 -11.671  1.00  0.00     0.171 HD
BRANCH  16  18
ATOM     18  C   UNL     1     -21.074  -0.511 -11.939  1.00  0.00     0.046 A 
ATOM     19  C   UNL     1     -21.470  -0.336 -13.267  1.00  0.00     0.077 A 
ATOM     20  C   UNL     1     -21.698  -1.472 -11.125  1.00  0.00     0.030 A 
ATOM     21  C   UNL     1     -22.487  -1.136 -13.742  1.00  0.00     0.174 A 
ATOM     22  C   UNL     1     -22.727  -2.271 -11.631  1.00  0.00     0.053 A 
ATOM     23  O   UNL     1     -23.003  -1.108 -15.002  1.00  0.00    -0.395 OA
ATOM     24  C   UNL     1     -23.100  -2.079 -12.945  1.00  0.00     0.172 A 
ATOM     25  C   UNL     1     -24.000  -2.135 -14.894  1.00  0.00     0.586 C 
ATOM     26  O   UNL     1     -24.076  -2.761 -13.605  1.00  0.00    -0.395 OA
ATOM     27  F   UNL     1     -23.742  -3.088 -15.825  1.00  0.00    -0.125 F 
ATOM     28  F   UNL     1     -25.210  -1.596 -15.186  1.00  0.00    -0.125 F 
ENDBRANCH  16  18
ENDBRANCH   2  12
TORSDOF 3
ENDMDL
MODEL 7
REMARK VINA RESULT:    -7.420      4.009      9.622
REMARK INTER + INTRA:          -9.019
REMARK INTER:                  -8.621
REMARK INTRA:                  -0.398
REMARK UNBOUND:                -0.298
REMARK SMILES O=C(Nc1ccc2c(c1)OC(F)(F)O2)Nc1ccc(Cl)c(C(F)(F)F)c1
REMARK SMILES IDX 20 1 16 2 21 3 26 4 17 5 19 6 18 7 22 8 23 9 24 10 25 11
REMARK SMILES IDX 15 12 2 13 1 15 3 16 4 18 9 19 5 20 8 21 6 22 10 23 7 24
REMARK SMILES IDX 11 25 14 26 12 27 13 28
REMARK H PARENT 15 14 3 17
REMARK Flexibility Score: inf
ROOT
ATOM      1  Cl  UNL     1     -15.411   1.580  -7.635  1.00  0.00    -0.084 Cl
ATOM      2  C   UNL     1     -18.470   1.328 -10.947  1.00  0.00     0.043 A 
ATOM      3  C   UNL     1     -17.902   1.941  -8.680  1.00  0.00     0.076 A 
ATOM      4  C   UNL     1     -18.838   1.860  -9.711  1.00  0.00     0.040 A 
ATOM      5  C   UNL     1     -17.166   0.879 -11.153  1.00  0.00     0.028 A 
ATOM      6  C   UNL     1     -16.597   1.492  -8.886  1.00  0.00     0.053 A 
ATOM      7  C   UNL     1     -16.229   0.960 -10.122  1.00  0.00     0.023 A 
ENDROOT
BRANCH   3   8
ATOM      8  C   UNL     1     -18.335   2.518  -7.371  1.00  0.00     0.417 C 
ATOM      9  F   UNL     1     -19.607   3.009  -7.413  1.00  0.00    -0.166 F 
ATOM     10  F   UNL     1     -18.321   1.616  -6.348  1.00  0.00    -0.166 F 
ATOM     11  F   UNL     1     -17.554   3.554  -6.949  1.00  0.00    -0.166 F 
ENDBRANCH   3   8
BRANCH   2  12
ATOM     12  N   UNL     1     -19.420   1.244 -11.992  1.00  0.00    -0.308 N 
ATOM     13  C   UNL     1     -20.597   0.478 -12.031  1.00  0.00     0.323 C 
ATOM     14  H   UNL     1     -19.218   1.811 -12.811  1.00  0.00     0.171 HD
ATOM     15  O   UNL     1     -20.993  -0.260 -11.134  1.00  0.00    -0.248 OA
ATOM     16  N   UNL     1     -21.265   0.680 -13.263  1.00  0.00    -0.308 N 
ATOM     17  H   UNL     1     -20.815   1.322 -13.912  1.00  0.00     0.171 HD
BRANCH  16  18
ATOM     18  C   UNL     1     -22.461   0.116 -13.709  1.00  0.00     0.046 A 
ATOM     19  C   UNL     1     -23.551   0.941 -13.993  1.00  0.00     0.077 A 
ATOM     20  C   UNL     1     -22.556  -1.278 -13.867  1.00  0.00     0.030 A 
ATOM     21  C   UNL     1     -24.712   0.340 -14.430  1.00  0.00     0.174 A 
ATOM     22  C   UNL     1     -23.744  -1.863 -14.312  1.00  0.00     0.053 A 
ATOM     23  O   UNL     1     -25.871   0.979 -14.754  1.00  0.00    -0.395 OA
ATOM     24  C   UNL     1     -24.807  -1.026 -14.586  1.00  0.00     0.172 A 
ATOM     25  C   UNL     1     -26.688  -0.141 -15.124  1.00  0.00     0.586 C 
ATOM     26  O   UNL     1     -26.035  -1.415 -15.027  1.00  0.00    -0.395 OA
ATOM     27  F   UNL     1     -27.109   0.034 -16.402  1.00  0.00    -0.125 F 
ATOM     28  F   UNL     1     -27.787  -0.156 -14.330  1.00  0.00    -0.125 F 
ENDBRANCH  16  18
ENDBRANCH   2  12
TORSDOF 3
ENDMDL
MODEL 8
REMARK VINA RESULT:    -7.400      6.384      9.511
REMARK INTER + INTRA:          -8.995
REMARK INTER:                  -8.604
REMARK INTRA:                  -0.391
REMARK UNBOUND:                -0.298
REMARK SMILES O=C(Nc1ccc2c(c1)OC(F)(F)O2)Nc1ccc(Cl)c(C(F)(F)F)c1
REMARK SMILES IDX 20 1 16 2 21 3 26 4 17 5 19 6 18 7 22 8 23 9 24 10 25 11
REMARK SMILES IDX 15 12 2 13 1 15 3 16 4 18 9 19 5 20 8 21 6 22 10 23 7 24
REMARK SMILES IDX 11 25 14 26 12 27 13 28
REMARK H PARENT 15 14 3 17
REMARK Flexibility Score: inf
ROOT
ATOM      1  Cl  UNL     1     -20.135  11.918 -11.291  1.00  0.00    -0.084 Cl
ATOM      2  C   UNL     1     -20.594   7.444 -10.878  1.00  0.00     0.043 A 
ATOM      3  C   UNL     1     -19.347   9.342 -11.704  1.00  0.00     0.076 A 
ATOM      4  C   UNL     1     -19.498   7.962 -11.568  1.00  0.00     0.040 A 
ATOM      5  C   UNL     1     -21.538   8.307 -10.321  1.00  0.00     0.028 A 
ATOM      6  C   UNL     1     -20.291  10.205 -11.147  1.00  0.00     0.053 A 
ATOM      7  C   UNL     1     -21.387   9.688 -10.456  1.00  0.00     0.023 A 
ENDROOT
BRANCH   3   8
ATOM      8  C   UNL     1     -18.158   9.856 -12.450  1.00  0.00     0.417 C 
ATOM      9  F   UNL     1     -17.350  10.632 -11.672  1.00  0.00    -0.166 F 
ATOM     10  F   UNL     1     -17.357   8.869 -12.943  1.00  0.00    -0.166 F 
ATOM     11  F   UNL     1     -18.484  10.627 -13.527  1.00  0.00    -0.166 F 
ENDBRANCH   3   8
BRANCH   2  12
ATOM     12  N   UNL     1     -20.749   6.045 -10.742  1.00  0.00    -0.308 N 
ATOM     13  C   UNL     1     -20.820   5.080 -11.760  1.00  0.00     0.323 C 
ATOM     14  H   UNL     1     -20.815   5.705  -9.787  1.00  0.00     0.171 HD
ATOM     15  O   UNL     1     -20.758   5.313 -12.964  1.00  0.00    -0.248 OA
ATOM     16  N   UNL     1     -20.977   3.791 -11.195  1.00  0.00    -0.308 N 
ATOM     17  H   UNL     1     -21.013   3.753 -10.179  1.00  0.00     0.171 HD
BRANCH  16  18
ATOM     18  C   UNL     1     -21.088   2.562 -11.846  1.00  0.00     0.046 A 
ATOM     19  C   UNL     1     -22.215   2.292 -12.627  1.00  0.00     0.077 A 
ATOM     20  C   UNL     1     -20.065   1.607 -11.710  1.00  0.00     0.030 A 
ATOM     21  C   UNL     1     -22.282   1.065 -13.251  1.00  0.00     0.174 A 
ATOM     22  C   UNL     1     -20.157   0.370 -12.353  1.00  0.00     0.053 A 
ATOM     23  O   UNL     1     -23.297   0.627 -14.047  1.00  0.00    -0.395 OA
ATOM     24  C   UNL     1     -21.280   0.128 -13.118  1.00  0.00     0.172 A 
ATOM     25  C   UNL     1     -22.812  -0.679 -14.388  1.00  0.00     0.586 C 
ATOM     26  O   UNL     1     -21.540  -1.013 -13.814  1.00  0.00    -0.395 OA
ATOM     27  F   UNL     1     -22.714  -0.766 -15.739  1.00  0.00    -0.125 F 
ATOM     28  F   UNL     1     -23.724  -1.599 -13.985  1.00  0.00    -0.125 F 
ENDBRANCH  16  18
ENDBRANCH   2  12
TORSDOF 3
ENDMDL
MODEL 9
REMARK VINA RESULT:    -7.317      5.638      9.285
REMARK INTER + INTRA:          -8.898
REMARK INTER:                  -8.599
REMARK INTRA:                  -0.299
REMARK UNBOUND:                -0.298
REMARK SMILES O=C(Nc1ccc2c(c1)OC(F)(F)O2)Nc1ccc(Cl)c(C(F)(F)F)c1
REMARK SMILES IDX 20 1 16 2 21 3 26 4 17 5 19 6 18 7 22 8 23 9 24 10 25 11
REMARK SMILES IDX 15 12 2 13 1 15 3 16 4 18 9 19 5 20 8 21 6 22 10 23 7 24
REMARK SMILES IDX 11 25 14 26 12 27 13 28
REMARK H PARENT 15 14 3 17
REMARK Flexibility Score: inf
ROOT
ATOM      1  Cl  UNL     1     -20.896  10.154 -10.366  1.00  0.00    -0.084 Cl
ATOM      2  C   UNL     1     -21.316   6.191 -12.490  1.00  0.00     0.043 A 
ATOM      3  C   UNL     1     -19.972   8.117 -11.923  1.00  0.00     0.076 A 
ATOM      4  C   UNL     1     -20.113   6.891 -12.573  1.00  0.00     0.040 A 
ATOM      5  C   UNL     1     -22.379   6.716 -11.754  1.00  0.00     0.028 A 
ATOM      6  C   UNL     1     -21.034   8.642 -11.187  1.00  0.00     0.053 A 
ATOM      7  C   UNL     1     -22.238   7.942 -11.103  1.00  0.00     0.023 A 
ENDROOT
BRANCH   3   8
ATOM      8  C   UNL     1     -18.666   8.835 -12.036  1.00  0.00     0.417 C 
ATOM      9  F   UNL     1     -18.783  10.032 -12.681  1.00  0.00    -0.166 F 
ATOM     10  F   UNL     1     -18.096   9.121 -10.830  1.00  0.00    -0.166 F 
ATOM     11  F   UNL     1     -17.719   8.135 -12.724  1.00  0.00    -0.166 F 
ENDBRANCH   3   8
BRANCH   2  12
ATOM     12  N   UNL     1     -21.460   4.948 -13.151  1.00  0.00    -0.308 N 
ATOM     13  C   UNL     1     -21.826   3.711 -12.596  1.00  0.00     0.323 C 
ATOM     14  H   UNL     1     -21.273   4.963 -14.150  1.00  0.00     0.171 HD
ATOM     15  O   UNL     1     -22.086   3.513 -11.414  1.00  0.00    -0.248 OA
ATOM     16  N   UNL     1     -21.852   2.718 -13.605  1.00  0.00    -0.308 N 
ATOM     17  H   UNL     1     -21.612   3.031 -14.543  1.00  0.00     0.171 HD
BRANCH  16  18
ATOM     18  C   UNL     1     -22.163   1.363 -13.486  1.00  0.00     0.046 A 
ATOM     19  C   UNL     1     -23.221   0.829 -14.227  1.00  0.00     0.077 A 
ATOM     20  C   UNL     1     -21.410   0.549 -12.621  1.00  0.00     0.030 A 
ATOM     21  C   UNL     1     -23.492  -0.515 -14.077  1.00  0.00     0.174 A 
ATOM     22  C   UNL     1     -21.706  -0.810 -12.488  1.00  0.00     0.053 A 
ATOM     23  O   UNL     1     -24.478  -1.207 -14.713  1.00  0.00    -0.395 OA
ATOM     24  C   UNL     1     -22.755  -1.313 -13.229  1.00  0.00     0.172 A 
ATOM     25  C   UNL     1     -24.268  -2.516 -14.165  1.00  0.00     0.586 C 
ATOM     26  O   UNL     1     -23.184  -2.605 -13.229  1.00  0.00    -0.395 OA
ATOM     27  F   UNL     1     -24.032  -3.380 -15.185  1.00  0.00    -0.125 F 
ATOM     28  F   UNL     1     -25.407  -2.915 -13.548  1.00  0.00    -0.125 F 
ENDBRANCH  16  18
ENDBRANCH   2  12
TORSDOF 3
ENDMDL
MODEL 10
REMARK VINA RESULT:    -7.257      3.910      9.645
REMARK INTER + INTRA:          -8.828
REMARK INTER:                  -8.251
REMARK INTRA:                  -0.576
REMARK UNBOUND:                -0.298
REMARK SMILES O=C(Nc1ccc2c(c1)OC(F)(F)O2)Nc1ccc(Cl)c(C(F)(F)F)c1
REMARK SMILES IDX 20 1 16 2 21 3 26 4 17 5 19 6 18 7 22 8 23 9 24 10 25 11
REMARK SMILES IDX 15 12 2 13 1 15 3 16 4 18 9 19 5 20 8 21 6 22 10 23 7 24
REMARK SMILES IDX 11 25 14 26 12 27 13 28
REMARK H PARENT 15 14 3 17
REMARK Flexibility Score: inf
ROOT
ATOM      1  Cl  UNL     1     -16.030   1.145  -9.145  1.00  0.00    -0.084 Cl
ATOM      2  C   UNL     1     -19.343  -0.192 -11.907  1.00  0.00     0.043 A 
ATOM      3  C   UNL     1     -17.672  -0.730 -10.247  1.00  0.00     0.076 A 
ATOM      4  C   UNL     1     -18.698  -1.131 -11.103  1.00  0.00     0.040 A 
ATOM      5  C   UNL     1     -18.963   1.150 -11.854  1.00  0.00     0.028 A 
ATOM      6  C   UNL     1     -17.292   0.611 -10.194  1.00  0.00     0.053 A 
ATOM      7  C   UNL     1     -17.937   1.552 -10.998  1.00  0.00     0.023 A 
ENDROOT
BRANCH   3   8
ATOM      8  C   UNL     1     -17.007  -1.767  -9.401  1.00  0.00     0.417 C 
ATOM      9  F   UNL     1     -17.156  -1.526  -8.066  1.00  0.00    -0.166 F 
ATOM     10  F   UNL     1     -17.491  -3.026  -9.603  1.00  0.00    -0.166 F 
ATOM     11  F   UNL     1     -15.662  -1.860  -9.611  1.00  0.00    -0.166 F 
ENDBRANCH   3   8
BRANCH   2  12
ATOM     12  N   UNL     1     -20.382  -0.599 -12.777  1.00  0.00    -0.308 N 
ATOM     13  C   UNL     1     -21.759  -0.656 -12.510  1.00  0.00     0.323 C 
ATOM     14  H   UNL     1     -20.085  -0.882 -13.707  1.00  0.00     0.171 HD
ATOM     15  O   UNL     1     -22.289  -0.353 -11.446  1.00  0.00    -0.248 OA
ATOM     16  N   UNL     1     -22.454  -1.119 -13.653  1.00  0.00    -0.308 N 
ATOM     17  H   UNL     1     -21.880  -1.334 -14.466  1.00  0.00     0.171 HD
BRANCH  16  18
ATOM     18  C   UNL     1     -23.825  -1.323 -13.817  1.00  0.00     0.046 A 
ATOM     19  C   UNL     1     -24.403  -2.521 -13.390  1.00  0.00     0.077 A 
ATOM     20  C   UNL     1     -24.611  -0.319 -14.411  1.00  0.00     0.030 A 
ATOM     21  C   UNL     1     -25.761  -2.677 -13.572  1.00  0.00     0.174 A 
ATOM     22  C   UNL     1     -25.985  -0.503 -14.584  1.00  0.00     0.053 A 
ATOM     23  O   UNL     1     -26.494  -3.770 -13.220  1.00  0.00    -0.395 OA
ATOM     24  C   UNL     1     -26.532  -1.694 -14.154  1.00  0.00     0.172 A 
ATOM     25  C   UNL     1     -27.798  -3.354 -13.650  1.00  0.00     0.586 C 
ATOM     26  O   UNL     1     -27.844  -2.047 -14.239  1.00  0.00    -0.395 OA
ATOM     27  F   UNL     1     -28.633  -3.377 -12.580  1.00  0.00    -0.125 F 
ATOM     28  F   UNL     1     -28.264  -4.253 -14.551  1.00  0.00    -0.125 F 
ENDBRANCH  16  18
ENDBRANCH   2  12
TORSDOF 3
ENDMDL
MODEL 11
REMARK VINA RESULT:    -7.240      3.576      9.615
REMARK INTER + INTRA:          -8.807
REMARK INTER:                  -8.480
REMARK INTRA:                  -0.327
REMARK UNBOUND:                -0.298
REMARK SMILES O=C(Nc1ccc2c(c1)OC(F)(F)O2)Nc1ccc(Cl)c(C(F)(F)F)c1
REMARK SMILES IDX 20 1 16 2 21 3 26 4 17 5 19 6 18 7 22 8 23 9 24 10 25 11
REMARK SMILES IDX 15 12 2 13 1 15 3 16 4 18 9 19 5 20 8 21 6 22 10 23 7 24
REMARK SMILES IDX 11 25 14 26 12 27 13 28
REMARK H PARENT 15 14 3 17
REMARK Flexibility Score: inf
ROOT
ATOM      1  Cl  UNL     1     -15.522   1.628  -7.139  1.00  0.00    -0.084 Cl
ATOM      2  C   UNL     1     -18.474   1.517 -10.555  1.00  0.00     0.043 A 
ATOM      3  C   UNL     1     -16.221   1.202  -9.738  1.00  0.00     0.076 A 
ATOM      4  C   UNL     1     -17.143   1.169 -10.785  1.00  0.00     0.040 A 
ATOM      5  C   UNL     1     -18.884   1.895  -9.277  1.00  0.00     0.028 A 
ATOM      6  C   UNL     1     -16.632   1.580  -8.460  1.00  0.00     0.053 A 
ATOM      7  C   UNL     1     -17.963   1.927  -8.228  1.00  0.00     0.023 A 
ENDROOT
BRANCH   3   8
ATOM      8  C   UNL     1     -14.805   0.820 -10.026  1.00  0.00     0.417 C 
ATOM      9  F   UNL     1     -14.524   0.826 -11.361  1.00  0.00    -0.166 F 
ATOM     10  F   UNL     1     -13.890   1.655  -9.453  1.00  0.00    -0.166 F 
ATOM     11  F   UNL     1     -14.478  -0.428  -9.585  1.00  0.00    -0.166 F 
ENDBRANCH   3   8
BRANCH   2  12
ATOM     12  N   UNL     1     -19.407   1.486 -11.617  1.00  0.00    -0.308 N 
ATOM     13  C   UNL     1     -20.514   0.635 -11.771  1.00  0.00     0.323 C 
ATOM     14  H   UNL     1     -19.250   2.167 -12.355  1.00  0.00     0.171 HD
ATOM     15  O   UNL     1     -20.850  -0.241 -10.981  1.00  0.00    -0.248 OA
ATOM     16  N   UNL     1     -21.190   0.935 -12.978  1.00  0.00    -0.308 N 
ATOM     17  H   UNL     1     -20.793   1.689 -13.535  1.00  0.00     0.171 HD
BRANCH  16  18
ATOM     18  C   UNL     1     -22.331   0.333 -13.511  1.00  0.00     0.046 A 
ATOM     19  C   UNL     1     -23.512   1.070 -13.624  1.00  0.00     0.077 A 
ATOM     20  C   UNL     1     -22.280  -1.009 -13.927  1.00  0.00     0.030 A 
ATOM     21  C   UNL     1     -24.614   0.434 -14.156  1.00  0.00     0.174 A 
ATOM     22  C   UNL     1     -23.411  -1.630 -14.463  1.00  0.00     0.053 A 
ATOM     23  O   UNL     1     -25.844   0.989 -14.343  1.00  0.00    -0.395 OA
ATOM     24  C   UNL     1     -24.566  -0.882 -14.564  1.00  0.00     0.172 A 
ATOM     25  C   UNL     1     -26.547  -0.127 -14.908  1.00  0.00     0.586 C 
ATOM     26  O   UNL     1     -25.757  -1.316 -15.059  1.00  0.00    -0.395 OA
ATOM     27  F   UNL     1     -27.023   0.234 -16.127  1.00  0.00    -0.125 F 
ATOM     28  F   UNL     1     -27.613  -0.412 -14.121  1.00  0.00    -0.125 F 
ENDBRANCH  16  18
ENDBRANCH   2  12
TORSDOF 3
ENDMDL
MODEL 12
REMARK VINA RESULT:    -7.202      2.129      2.734
REMARK INTER + INTRA:          -8.763
REMARK INTER:                  -8.274
REMARK INTRA:                  -0.489
REMARK UNBOUND:                -0.298
REMARK SMILES O=C(Nc1ccc2c(c1)OC(F)(F)O2)Nc1ccc(Cl)c(C(F)(F)F)c1
REMARK SMILES IDX 20 1 16 2 21 3 26 4 17 5 19 6 18 7 22 8 23 9 24 10 25 11
REMARK SMILES IDX 15 12 2 13 1 15 3 16 4 18 9 19 5 20 8 21 6 22 10 23 7 24
REMARK SMILES IDX 11 25 14 26 12 27 13 28
REMARK H PARENT 15 14 3 17
REMARK Flexibility Score: inf
ROOT
ATOM      1  Cl  UNL     1     -27.632  -2.625 -14.125  1.00  0.00    -0.084 Cl
ATOM      2  C   UNL     1     -23.340  -1.310 -13.629  1.00  0.00     0.043 A 
ATOM      3  C   UNL     1     -25.589  -0.839 -14.377  1.00  0.00     0.076 A 
ATOM      4  C   UNL     1     -24.261  -0.443 -14.217  1.00  0.00     0.040 A 
ATOM      5  C   UNL     1     -23.748  -2.573 -13.200  1.00  0.00     0.028 A 
ATOM      6  C   UNL     1     -25.996  -2.101 -13.947  1.00  0.00     0.053 A 
ATOM      7  C   UNL     1     -25.076  -2.970 -13.359  1.00  0.00     0.023 A 
ENDROOT
BRANCH   3   8
ATOM      8  C   UNL     1     -26.544   0.121 -15.010  1.00  0.00     0.417 C 
ATOM      9  F   UNL     1     -25.958   1.313 -15.320  1.00  0.00    -0.166 F 
ATOM     10  F   UNL     1     -27.084  -0.339 -16.175  1.00  0.00    -0.166 F 
ATOM     11  F   UNL     1     -27.610   0.429 -14.216  1.00  0.00    -0.166 F 
ENDBRANCH   3   8
BRANCH   2  12
ATOM     12  N   UNL     1     -21.993  -0.910 -13.469  1.00  0.00    -0.308 N 
ATOM     13  C   UNL     1     -21.277  -0.741 -12.272  1.00  0.00     0.323 C 
ATOM     14  H   UNL     1     -21.488  -0.723 -14.332  1.00  0.00     0.171 HD
ATOM     15  O   UNL     1     -21.728  -0.921 -11.145  1.00  0.00    -0.248 OA
ATOM     16  N   UNL     1     -19.952  -0.329 -12.555  1.00  0.00    -0.308 N 
ATOM     17  H   UNL     1     -19.721  -0.220 -13.540  1.00  0.00     0.171 HD
BRANCH  16  18
ATOM     18  C   UNL     1     -18.917  -0.052 -11.662  1.00  0.00     0.046 A 
ATOM     19  C   UNL     1     -18.145  -1.099 -11.150  1.00  0.00     0.077 A 
ATOM     20  C   UNL     1     -18.660   1.278 -11.284  1.00  0.00     0.030 A 
ATOM     21  C   UNL     1     -17.133  -0.777 -10.271  1.00  0.00     0.174 A 
ATOM     22  C   UNL     1     -17.628   1.577 -10.391  1.00  0.00     0.053 A 
ATOM     23  O   UNL     1     -16.283  -1.659  -9.674  1.00  0.00    -0.395 OA
ATOM     24  C   UNL     1     -16.881   0.526  -9.901  1.00  0.00     0.172 A 
ATOM     25  C   UNL     1     -15.482  -0.757  -8.897  1.00  0.00     0.586 C 
ATOM     26  O   UNL     1     -15.842   0.626  -9.027  1.00  0.00    -0.395 OA
ATOM     27  F   UNL     1     -14.184  -0.904  -9.264  1.00  0.00    -0.125 F 
ATOM     28  F   UNL     1     -15.579  -1.109  -7.591  1.00  0.00    -0.125 F 
ENDBRANCH  16  18
ENDBRANCH   2  12
TORSDOF 3
ENDMDL
MODEL 13
REMARK VINA RESULT:    -7.135      2.733      3.792
REMARK INTER + INTRA:          -8.684
REMARK INTER:                  -8.146
REMARK INTRA:                  -0.538
REMARK UNBOUND:                -0.298
REMARK SMILES O=C(Nc1ccc2c(c1)OC(F)(F)O2)Nc1ccc(Cl)c(C(F)(F)F)c1
REMARK SMILES IDX 20 1 16 2 21 3 26 4 17 5 19 6 18 7 22 8 23 9 24 10 25 11
REMARK SMILES IDX 15 12 2 13 1 15 3 16 4 18 9 19 5 20 8 21 6 22 10 23 7 24
REMARK SMILES IDX 11 25 14 26 12 27 13 28
REMARK H PARENT 15 14 3 17
REMARK Flexibility Score: inf
ROOT
ATOM      1  Cl  UNL     1     -24.322  -2.907 -12.926  1.00  0.00    -0.084 Cl
ATOM      2  C   UNL     1     -20.750  -1.026 -10.902  1.00  0.00     0.043 A 
ATOM      3  C   UNL     1     -22.332  -1.056 -12.729  1.00  0.00     0.076 A 
ATOM      4  C   UNL     1     -21.230  -0.482 -12.093  1.00  0.00     0.040 A 
ATOM      5  C   UNL     1     -21.373  -2.143 -10.345  1.00  0.00     0.028 A 
ATOM      6  C   UNL     1     -22.955  -2.173 -12.171  1.00  0.00     0.053 A 
ATOM      7  C   UNL     1     -22.475  -2.717 -10.979  1.00  0.00     0.023 A 
ENDROOT
BRANCH   3   8
ATOM      8  C   UNL     1     -22.817  -0.442 -14.003  1.00  0.00     0.417 C 
ATOM      9  F   UNL     1     -24.152  -0.166 -13.973  1.00  0.00    -0.166 F 
ATOM     10  F   UNL     1     -22.203   0.737 -14.306  1.00  0.00    -0.166 F 
ATOM     11  F   UNL     1     -22.628  -1.237 -15.095  1.00  0.00    -0.166 F 
ENDBRANCH   3   8
BRANCH   2  12
ATOM     12  N   UNL     1     -19.632  -0.446 -10.259  1.00  0.00    -0.308 N 
ATOM     13  C   UNL     1     -18.277  -0.782 -10.411  1.00  0.00     0.323 C 
ATOM     14  H   UNL     1     -19.845   0.306  -9.610  1.00  0.00     0.171 HD
ATOM     15  O   UNL     1     -17.842  -1.661 -11.149  1.00  0.00    -0.248 OA
ATOM     16  N   UNL     1     -17.478   0.044  -9.583  1.00  0.00    -0.308 N 
ATOM     17  H   UNL     1     -17.979   0.730  -9.024  1.00  0.00     0.171 HD
BRANCH  16  18
ATOM     18  C   UNL     1     -16.091   0.044  -9.431  1.00  0.00     0.046 A 
ATOM     19  C   UNL     1     -15.504  -0.749  -8.441  1.00  0.00     0.077 A 
ATOM     20  C   UNL     1     -15.298   0.841 -10.274  1.00  0.00     0.030 A 
ATOM     21  C   UNL     1     -14.130  -0.717  -8.327  1.00  0.00     0.174 A 
ATOM     22  C   UNL     1     -13.907   0.855 -10.138  1.00  0.00     0.053 A 
ATOM     23  O   UNL     1     -13.387  -1.418  -7.426  1.00  0.00    -0.395 OA
ATOM     24  C   UNL     1     -13.352   0.065  -9.153  1.00  0.00     0.172 A 
ATOM     25  C   UNL     1     -12.068  -0.983  -7.787  1.00  0.00     0.586 C 
ATOM     26  O   UNL     1     -12.024  -0.049  -8.876  1.00  0.00    -0.395 OA
ATOM     27  F   UNL     1     -11.329  -2.072  -8.120  1.00  0.00    -0.125 F 
ATOM     28  F   UNL     1     -11.489  -0.412  -6.703  1.00  0.00    -0.125 F 
ENDBRANCH  16  18
ENDBRANCH   2  12
TORSDOF 3
ENDMDL
MODEL 14
REMARK VINA RESULT:    -7.119      3.296      4.369
REMARK INTER + INTRA:          -8.665
REMARK INTER:                  -8.198
REMARK INTRA:                  -0.467
REMARK UNBOUND:                -0.298
REMARK SMILES O=C(Nc1ccc2c(c1)OC(F)(F)O2)Nc1ccc(Cl)c(C(F)(F)F)c1
REMARK SMILES IDX 20 1 16 2 21 3 26 4 17 5 19 6 18 7 22 8 23 9 24 10 25 11
REMARK SMILES IDX 15 12 2 13 1 15 3 16 4 18 9 19 5 20 8 21 6 22 10 23 7 24
REMARK SMILES IDX 11 25 14 26 12 27 13 28
REMARK H PARENT 15 14 3 17
REMARK Flexibility Score: inf
ROOT
ATOM      1  Cl  UNL     1     -23.555   0.970 -14.559  1.00  0.00    -0.084 Cl
ATOM      2  C   UNL     1     -20.185   0.420 -11.604  1.00  0.00     0.043 A 
ATOM      3  C   UNL     1     -21.794   1.865 -12.682  1.00  0.00     0.076 A 
ATOM      4  C   UNL     1     -20.754   1.683 -11.771  1.00  0.00     0.040 A 
ATOM      5  C   UNL     1     -20.659  -0.661 -12.347  1.00  0.00     0.028 A 
ATOM      6  C   UNL     1     -22.268   0.784 -13.425  1.00  0.00     0.053 A 
ATOM      7  C   UNL     1     -21.700  -0.480 -13.259  1.00  0.00     0.023 A 
ENDROOT
BRANCH   3   8
ATOM      8  C   UNL     1     -22.377   3.234 -12.830  1.00  0.00     0.417 C 
ATOM      9  F   UNL     1     -23.646   3.316 -12.336  1.00  0.00    -0.166 F 
ATOM     10  F   UNL     1     -21.666   4.200 -12.182  1.00  0.00    -0.166 F 
ATOM     11  F   UNL     1     -22.457   3.653 -14.125  1.00  0.00    -0.166 F 
ENDBRANCH   3   8
BRANCH   2  12
ATOM     12  N   UNL     1     -19.129   0.236 -10.682  1.00  0.00    -0.308 N 
ATOM     13  C   UNL     1     -17.757   0.459 -10.882  1.00  0.00     0.323 C 
ATOM     14  H   UNL     1     -19.406  -0.100  -9.764  1.00  0.00     0.171 HD
ATOM     15  O   UNL     1     -17.249   0.862 -11.924  1.00  0.00    -0.248 OA
ATOM     16  N   UNL     1     -17.039   0.150  -9.702  1.00  0.00    -0.308 N 
ATOM     17  H   UNL     1     -17.596  -0.175  -8.915  1.00  0.00     0.171 HD
BRANCH  16  18
ATOM     18  C   UNL     1     -15.665   0.232  -9.471  1.00  0.00     0.046 A 
ATOM     19  C   UNL     1     -15.029   1.475  -9.511  1.00  0.00     0.077 A 
ATOM     20  C   UNL     1     -14.934  -0.939  -9.201  1.00  0.00     0.030 A 
ATOM     21  C   UNL     1     -13.671   1.507  -9.278  1.00  0.00     0.174 A 
ATOM     22  C   UNL     1     -13.558  -0.879  -8.967  1.00  0.00     0.053 A 
ATOM     23  O   UNL     1     -12.886   2.621  -9.275  1.00  0.00    -0.395 OA
ATOM     24  C   UNL     1     -12.953   0.360  -9.013  1.00  0.00     0.172 A 
ATOM     25  C   UNL     1     -11.609   2.035  -8.982  1.00  0.00     0.586 C 
ATOM     26  O   UNL     1     -11.631   0.611  -8.810  1.00  0.00    -0.395 OA
ATOM     27  F   UNL     1     -11.124   2.601  -7.849  1.00  0.00    -0.125 F 
ATOM     28  F   UNL     1     -10.753   2.337  -9.989  1.00  0.00    -0.125 F 
ENDBRANCH  16  18
ENDBRANCH   2  12
TORSDOF 3
ENDMDL
MODEL 15
REMARK VINA RESULT:    -7.118      3.899     10.005
REMARK INTER + INTRA:          -8.664
REMARK INTER:                  -8.224
REMARK INTRA:                  -0.439
REMARK UNBOUND:                -0.298
REMARK SMILES O=C(Nc1ccc2c(c1)OC(F)(F)O2)Nc1ccc(Cl)c(C(F)(F)F)c1
REMARK SMILES IDX 20 1 16 2 21 3 26 4 17 5 19 6 18 7 22 8 23 9 24 10 25 11
REMARK SMILES IDX 15 12 2 13 1 15 3 16 4 18 9 19 5 20 8 21 6 22 10 23 7 24
REMARK SMILES IDX 11 25 14 26 12 27 13 28
REMARK H PARENT 15 14 3 17
REMARK Flexibility Score: inf
ROOT
ATOM      1  Cl  UNL     1     -11.624  -0.558  -7.769  1.00  0.00    -0.084 Cl
ATOM      2  C   UNL     1     -15.794   0.627  -9.032  1.00  0.00     0.043 A 
ATOM      3  C   UNL     1     -13.472   1.212  -8.706  1.00  0.00     0.076 A 
ATOM      4  C   UNL     1     -14.764   1.566  -9.095  1.00  0.00     0.040 A 
ATOM      5  C   UNL     1     -15.531  -0.667  -8.582  1.00  0.00     0.028 A 
ATOM      6  C   UNL     1     -13.210  -0.082  -8.256  1.00  0.00     0.053 A 
ATOM      7  C   UNL     1     -14.239  -1.022  -8.193  1.00  0.00     0.023 A 
ENDROOT
BRANCH   3   8
ATOM      8  C   UNL     1     -12.397   2.246  -8.789  1.00  0.00     0.417 C 
ATOM      9  F   UNL     1     -12.867   3.455  -9.211  1.00  0.00    -0.166 F 
ATOM     10  F   UNL     1     -11.781   2.487  -7.596  1.00  0.00    -0.166 F 
ATOM     11  F   UNL     1     -11.393   1.918  -9.652  1.00  0.00    -0.166 F 
ENDBRANCH   3   8
BRANCH   2  12
ATOM     12  N   UNL     1     -17.105   0.987  -9.425  1.00  0.00    -0.308 N 
ATOM     13  C   UNL     1     -17.763   0.676 -10.626  1.00  0.00     0.323 C 
ATOM     14  H   UNL     1     -17.626   1.537  -8.749  1.00  0.00     0.171 HD
ATOM     15  O   UNL     1     -17.285   0.024 -11.549  1.00  0.00    -0.248 OA
ATOM     16  N   UNL     1     -19.066   1.229 -10.620  1.00  0.00    -0.308 N 
ATOM     17  H   UNL     1     -19.325   1.747  -9.784  1.00  0.00     0.171 HD
BRANCH  16  18
ATOM     18  C   UNL     1     -20.048   1.158 -11.609  1.00  0.00     0.046 A 
ATOM     19  C   UNL     1     -20.487  -0.090 -12.060  1.00  0.00     0.077 A 
ATOM     20  C   UNL     1     -20.584   2.343 -12.144  1.00  0.00     0.030 A 
ATOM     21  C   UNL     1     -21.458  -0.111 -13.039  1.00  0.00     0.174 A 
ATOM     22  C   UNL     1     -21.568   2.293 -13.135  1.00  0.00     0.053 A 
ATOM     23  O   UNL     1     -22.006  -1.226 -13.597  1.00  0.00    -0.395 OA
ATOM     24  C   UNL     1     -21.984   1.050 -13.563  1.00  0.00     0.172 A 
ATOM     25  C   UNL     1     -22.924  -0.627 -14.522  1.00  0.00     0.586 C 
ATOM     26  O   UNL     1     -22.928   0.808 -14.514  1.00  0.00    -0.395 OA
ATOM     27  F   UNL     1     -24.176  -1.065 -14.234  1.00  0.00    -0.125 F 
ATOM     28  F   UNL     1     -22.620  -1.052 -15.772  1.00  0.00    -0.125 F 
ENDBRANCH  16  18
ENDBRANCH   2  12
TORSDOF 3
ENDMDL
MODEL 16
REMARK VINA RESULT:    -7.097      2.437      3.486
REMARK INTER + INTRA:          -8.640
REMARK INTER:                  -8.250
REMARK INTRA:                  -0.390
REMARK UNBOUND:                -0.298
REMARK SMILES O=C(Nc1ccc2c(c1)OC(F)(F)O2)Nc1ccc(Cl)c(C(F)(F)F)c1
REMARK SMILES IDX 20 1 16 2 21 3 26 4 17 5 19 6 18 7 22 8 23 9 24 10 25 11
REMARK SMILES IDX 15 12 2 13 1 15 3 16 4 18 9 19 5 20 8 21 6 22 10 23 7 24
REMARK SMILES IDX 11 25 14 26 12 27 13 28
REMARK H PARENT 15 14 3 17
REMARK Flexibility Score: inf
ROOT
ATOM      1  Cl  UNL     1     -23.676   0.053 -14.362  1.00  0.00    -0.084 Cl
ATOM      2  C   UNL     1     -20.281   0.012 -11.385  1.00  0.00     0.043 A 
ATOM      3  C   UNL     1     -22.259  -1.030 -12.301  1.00  0.00     0.076 A 
ATOM      4  C   UNL     1     -21.205  -1.033 -11.387  1.00  0.00     0.040 A 
ATOM      5  C   UNL     1     -20.410   1.059 -12.297  1.00  0.00     0.028 A 
ATOM      6  C   UNL     1     -22.388   0.016 -13.214  1.00  0.00     0.053 A 
ATOM      7  C   UNL     1     -21.464   1.062 -13.212  1.00  0.00     0.023 A 
ENDROOT
BRANCH   3   8
ATOM      8  C   UNL     1     -23.227  -2.169 -12.273  1.00  0.00     0.417 C 
ATOM      9  F   UNL     1     -24.506  -1.761 -12.033  1.00  0.00    -0.166 F 
ATOM     10  F   UNL     1     -23.277  -2.869 -13.442  1.00  0.00    -0.166 F 
ATOM     11  F   UNL     1     -22.948  -3.095 -11.311  1.00  0.00    -0.166 F 
ENDBRANCH   3   8
BRANCH   2  12
ATOM     12  N   UNL     1     -19.214   0.010 -10.456  1.00  0.00    -0.308 N 
ATOM     13  C   UNL     1     -17.841   0.148 -10.718  1.00  0.00     0.323 C 
ATOM     14  H   UNL     1     -19.483  -0.105  -9.483  1.00  0.00     0.171 HD
ATOM     15  O   UNL     1     -17.341   0.295 -11.829  1.00  0.00    -0.248 OA
ATOM     16  N   UNL     1     -17.110   0.091  -9.506  1.00  0.00    -0.308 N 
ATOM     17  H   UNL     1     -17.661  -0.036  -8.660  1.00  0.00     0.171 HD
BRANCH  16  18
ATOM     18  C   UNL     1     -15.731   0.185  -9.315  1.00  0.00     0.046 A 
ATOM     19  C   UNL     1     -15.113   1.439  -9.339  1.00  0.00     0.077 A 
ATOM     20  C   UNL     1     -14.976  -0.981  -9.101  1.00  0.00     0.030 A 
ATOM     21  C   UNL     1     -13.749   1.484  -9.146  1.00  0.00     0.174 A 
ATOM     22  C   UNL     1     -13.594  -0.908  -8.908  1.00  0.00     0.053 A 
ATOM     23  O   UNL     1     -12.980   2.608  -9.136  1.00  0.00    -0.395 OA
ATOM     24  C   UNL     1     -13.008   0.340  -8.936  1.00  0.00     0.172 A 
ATOM     25  C   UNL     1     -11.687   2.033  -8.898  1.00  0.00     0.586 C 
ATOM     26  O   UNL     1     -11.684   0.604  -8.767  1.00  0.00    -0.395 OA
ATOM     27  F   UNL     1     -11.174   2.573  -7.764  1.00  0.00    -0.125 F 
ATOM     28  F   UNL     1     -10.866   2.376  -9.922  1.00  0.00    -0.125 F 
ENDBRANCH  16  18
ENDBRANCH   2  12
TORSDOF 3
ENDMDL
MODEL 17
REMARK VINA RESULT:    -7.025      4.010      9.671
REMARK INTER + INTRA:          -8.555
REMARK INTER:                  -8.131
REMARK INTRA:                  -0.425
REMARK UNBOUND:                -0.298
REMARK SMILES O=C(Nc1ccc2c(c1)OC(F)(F)O2)Nc1ccc(Cl)c(C(F)(F)F)c1
REMARK SMILES IDX 20 1 16 2 21 3 26 4 17 5 19 6 18 7 22 8 23 9 24 10 25 11
REMARK SMILES IDX 15 12 2 13 1 15 3 16 4 18 9 19 5 20 8 21 6 22 10 23 7 24
REMARK SMILES IDX 11 25 14 26 12 27 13 28
REMARK H PARENT 15 14 3 17
REMARK Flexibility Score: inf
ROOT
ATOM      1  Cl  UNL     1     -15.876   0.646  -8.618  1.00  0.00    -0.084 Cl
ATOM      2  C   UNL     1     -19.200   1.918 -11.398  1.00  0.00     0.043 A 
ATOM      3  C   UNL     1     -18.249   1.864  -9.177  1.00  0.00     0.076 A 
ATOM      4  C   UNL     1     -19.269   2.253 -10.046  1.00  0.00     0.040 A 
ATOM      5  C   UNL     1     -18.109   1.196 -11.882  1.00  0.00     0.028 A 
ATOM      6  C   UNL     1     -17.159   1.142  -9.662  1.00  0.00     0.053 A 
ATOM      7  C   UNL     1     -17.089   0.806 -11.014  1.00  0.00     0.023 A 
ENDROOT
BRANCH   3   8
ATOM      8  C   UNL     1     -18.361   2.244  -7.736  1.00  0.00     0.417 C 
ATOM      9  F   UNL     1     -17.233   2.854  -7.269  1.00  0.00    -0.166 F 
ATOM     10  F   UNL     1     -19.382   3.111  -7.479  1.00  0.00    -0.166 F 
ATOM     11  F   UNL     1     -18.575   1.181  -6.909  1.00  0.00    -0.166 F 
ENDBRANCH   3   8
BRANCH   2  12
ATOM     12  N   UNL     1     -20.235   2.310 -12.278  1.00  0.00    -0.308 N 
ATOM     13  C   UNL     1     -21.533   1.783 -12.376  1.00  0.00     0.323 C 
ATOM     14  H   UNL     1     -20.002   3.068 -12.915  1.00  0.00     0.171 HD
ATOM     15  O   UNL     1     -21.982   0.871 -11.689  1.00  0.00    -0.248 OA
ATOM     16  N   UNL     1     -22.255   2.460 -13.389  1.00  0.00    -0.308 N 
ATOM     17  H   UNL     1     -21.752   3.197 -13.877  1.00  0.00     0.171 HD
BRANCH  16  18
ATOM     18  C   UNL     1     -23.570   2.253 -13.809  1.00  0.00     0.046 A 
ATOM     19  C   UNL     1     -23.931   1.025 -14.370  1.00  0.00     0.077 A 
ATOM     20  C   UNL     1     -24.518   3.281 -13.665  1.00  0.00     0.030 A 
ATOM     21  C   UNL     1     -25.240   0.865 -14.771  1.00  0.00     0.174 A 
ATOM     22  C   UNL     1     -25.839   3.093 -14.079  1.00  0.00     0.053 A 
ATOM     23  O   UNL     1     -25.772  -0.255 -15.335  1.00  0.00    -0.395 OA
ATOM     24  C   UNL     1     -26.170   1.873 -14.630  1.00  0.00     0.172 A 
ATOM     25  C   UNL     1     -27.128   0.173 -15.526  1.00  0.00     0.586 C 
ATOM     26  O   UNL     1     -27.400   1.511 -15.086  1.00  0.00    -0.395 OA
ATOM     27  F   UNL     1     -27.949  -0.678 -14.860  1.00  0.00    -0.125 F 
ATOM     28  F   UNL     1     -27.429   0.081 -16.845  1.00  0.00    -0.125 F 
ENDBRANCH  16  18
ENDBRANCH   2  12
TORSDOF 3
ENDMDL
MODEL 18
REMARK VINA RESULT:    -6.993      1.744      2.192
REMARK INTER + INTRA:          -8.518
REMARK INTER:                  -8.220
REMARK INTRA:                  -0.298
REMARK UNBOUND:                -0.298
REMARK SMILES O=C(Nc1ccc2c(c1)OC(F)(F)O2)Nc1ccc(Cl)c(C(F)(F)F)c1
REMARK SMILES IDX 20 1 16 2 21 3 26 4 17 5 19 6 18 7 22 8 23 9 24 10 25 11
REMARK SMILES IDX 15 12 2 13 1 15 3 16 4 18 9 19 5 20 8 21 6 22 10 23 7 24
REMARK SMILES IDX 11 25 14 26 12 27 13 28
REMARK H PARENT 15 14 3 17
REMARK Flexibility Score: inf
ROOT
ATOM      1  Cl  UNL     1     -28.268   2.188 -15.279  1.00  0.00    -0.084 Cl
ATOM      2  C   UNL     1     -23.893   2.320 -14.168  1.00  0.00     0.043 A 
ATOM      3  C   UNL     1     -25.840   1.042 -14.813  1.00  0.00     0.076 A 
ATOM      4  C   UNL     1     -24.488   1.096 -14.470  1.00  0.00     0.040 A 
ATOM      5  C   UNL     1     -24.649   3.492 -14.210  1.00  0.00     0.028 A 
ATOM      6  C   UNL     1     -26.595   2.214 -14.856  1.00  0.00     0.053 A 
ATOM      7  C   UNL     1     -26.000   3.439 -14.554  1.00  0.00     0.023 A 
ENDROOT
BRANCH   3   8
ATOM      8  C   UNL     1     -26.439  -0.290 -15.132  1.00  0.00     0.417 C 
ATOM      9  F   UNL     1     -25.503  -1.279 -15.204  1.00  0.00    -0.166 F 
ATOM     10  F   UNL     1     -27.350  -0.711 -14.208  1.00  0.00    -0.166 F 
ATOM     11  F   UNL     1     -27.099  -0.317 -16.326  1.00  0.00    -0.166 F 
ENDBRANCH   3   8
BRANCH   2  12
ATOM     12  N   UNL     1     -22.524   2.374 -13.818  1.00  0.00    -0.308 N 
ATOM     13  C   UNL     1     -21.924   1.986 -12.609  1.00  0.00     0.323 C 
ATOM     14  H   UNL     1     -21.905   2.740 -14.536  1.00  0.00     0.171 HD
ATOM     15  O   UNL     1     -22.518   1.525 -11.639  1.00  0.00    -0.248 OA
ATOM     16  N   UNL     1     -20.527   2.204 -12.670  1.00  0.00    -0.308 N 
ATOM     17  H   UNL     1     -20.175   2.594 -13.542  1.00  0.00     0.171 HD
BRANCH  16  18
ATOM     18  C   UNL     1     -19.562   1.956 -11.692  1.00  0.00     0.046 A 
ATOM     19  C   UNL     1     -18.381   1.294 -12.037  1.00  0.00     0.077 A 
ATOM     20  C   UNL     1     -19.789   2.375 -10.369  1.00  0.00     0.030 A 
ATOM     21  C   UNL     1     -17.458   1.071 -11.038  1.00  0.00     0.174 A 
ATOM     22  C   UNL     1     -18.836   2.137  -9.375  1.00  0.00     0.053 A 
ATOM     23  O   UNL     1     -16.256   0.446 -11.186  1.00  0.00    -0.395 OA
ATOM     24  C   UNL     1     -17.679   1.481  -9.741  1.00  0.00     0.172 A 
ATOM     25  C   UNL     1     -15.764   0.514  -9.840  1.00  0.00     0.586 C 
ATOM     26  O   UNL     1     -16.645   1.166  -8.914  1.00  0.00    -0.395 OA
ATOM     27  F   UNL     1     -14.577   1.173  -9.846  1.00  0.00    -0.125 F 
ATOM     28  F   UNL     1     -15.529  -0.747  -9.400  1.00  0.00    -0.125 F 
ENDBRANCH  16  18
ENDBRANCH   2  12
TORSDOF 3
ENDMDL
MODEL 19
REMARK VINA RESULT:    -6.985      2.408      3.296
REMARK INTER + INTRA:          -8.507
REMARK INTER:                  -8.060
REMARK INTRA:                  -0.447
REMARK UNBOUND:                -0.298
REMARK SMILES O=C(Nc1ccc2c(c1)OC(F)(F)O2)Nc1ccc(Cl)c(C(F)(F)F)c1
REMARK SMILES IDX 20 1 16 2 21 3 26 4 17 5 19 6 18 7 22 8 23 9 24 10 25 11
REMARK SMILES IDX 15 12 2 13 1 15 3 16 4 18 9 19 5 20 8 21 6 22 10 23 7 24
REMARK SMILES IDX 11 25 14 26 12 27 13 28
REMARK H PARENT 15 14 3 17
REMARK Flexibility Score: inf
ROOT
ATOM      1  Cl  UNL     1     -29.921  -1.067 -14.802  1.00  0.00    -0.084 Cl
ATOM      2  C   UNL     1     -25.494  -0.243 -14.452  1.00  0.00     0.043 A 
ATOM      3  C   UNL     1     -27.375  -1.712 -14.073  1.00  0.00     0.076 A 
ATOM      4  C   UNL     1     -26.009  -1.448 -13.972  1.00  0.00     0.040 A 
ATOM      5  C   UNL     1     -26.345   0.695 -15.036  1.00  0.00     0.028 A 
ATOM      6  C   UNL     1     -28.226  -0.774 -14.656  1.00  0.00     0.053 A 
ATOM      7  C   UNL     1     -27.712   0.431 -15.137  1.00  0.00     0.023 A 
ENDROOT
BRANCH   3   8
ATOM      8  C   UNL     1     -27.887  -3.015 -13.548  1.00  0.00     0.417 C 
ATOM      9  F   UNL     1     -26.894  -3.796 -13.032  1.00  0.00    -0.166 F 
ATOM     10  F   UNL     1     -28.803  -2.875 -12.547  1.00  0.00    -0.166 F 
ATOM     11  F   UNL     1     -28.503  -3.778 -14.495  1.00  0.00    -0.166 F 
ENDBRANCH   3   8
BRANCH   2  12
ATOM     12  N   UNL     1     -24.109   0.026 -14.348  1.00  0.00    -0.308 N 
ATOM     13  C   UNL     1     -23.373   0.332 -13.192  1.00  0.00     0.323 C 
ATOM     14  H   UNL     1     -23.592  -0.009 -15.222  1.00  0.00     0.171 HD
ATOM     15  O   UNL     1     -23.834   0.415 -12.058  1.00  0.00    -0.248 OA
ATOM     16  N   UNL     1     -22.011   0.532 -13.525  1.00  0.00    -0.308 N 
ATOM     17  H   UNL     1     -21.775   0.431 -14.509  1.00  0.00     0.171 HD
BRANCH  16  18
ATOM     18  C   UNL     1     -20.946   0.852 -12.682  1.00  0.00     0.046 A 
ATOM     19  C   UNL     1     -19.859  -0.019 -12.581  1.00  0.00     0.077 A 
ATOM     20  C   UNL     1     -20.978   2.048 -11.943  1.00  0.00     0.030 A 
ATOM     21  C   UNL     1     -18.829   0.338 -11.736  1.00  0.00     0.174 A 
ATOM     22  C   UNL     1     -19.921   2.387 -11.094  1.00  0.00     0.053 A 
ATOM     23  O   UNL     1     -17.695  -0.382 -11.510  1.00  0.00    -0.395 OA
ATOM     24  C   UNL     1     -18.860   1.510 -11.011  1.00  0.00     0.172 A 
ATOM     25  C   UNL     1     -17.032   0.473 -10.568  1.00  0.00     0.586 C 
ATOM     26  O   UNL     1     -17.749   1.673 -10.242  1.00  0.00    -0.395 OA
ATOM     27  F   UNL     1     -15.820   0.817 -11.073  1.00  0.00    -0.125 F 
ATOM     28  F   UNL     1     -16.815  -0.226  -9.426  1.00  0.00    -0.125 F 
ENDBRANCH  16  18
ENDBRANCH   2  12
TORSDOF 3
ENDMDL
MODEL 20
REMARK VINA RESULT:    -6.921      1.780      2.166
REMARK INTER + INTRA:          -8.433
REMARK INTER:                  -7.908
REMARK INTRA:                  -0.524
REMARK UNBOUND:                -0.298
REMARK SMILES O=C(Nc1ccc2c(c1)OC(F)(F)O2)Nc1ccc(Cl)c(C(F)(F)F)c1
REMARK SMILES IDX 20 1 16 2 21 3 26 4 17 5 19 6 18 7 22 8 23 9 24 10 25 11
REMARK SMILES IDX 15 12 2 13 1 15 3 16 4 18 9 19 5 20 8 21 6 22 10 23 7 24
REMARK SMILES IDX 11 25 14 26 12 27 13 28
REMARK H PARENT 15 14 3 17
REMARK Flexibility Score: inf
ROOT
ATOM      1  Cl  UNL     1     -27.273  -0.592 -14.800  1.00  0.00    -0.084 Cl
ATOM      2  C   UNL     1     -22.856  -0.526 -13.861  1.00  0.00     0.043 A 
ATOM      3  C   UNL     1     -25.009  -1.608 -13.673  1.00  0.00     0.076 A 
ATOM      4  C   UNL     1     -23.643  -1.578 -13.391  1.00  0.00     0.040 A 
ATOM      5  C   UNL     1     -23.434   0.494 -14.615  1.00  0.00     0.028 A 
ATOM      6  C   UNL     1     -25.587  -0.587 -14.427  1.00  0.00     0.053 A 
ATOM      7  C   UNL     1     -24.801   0.465 -14.898  1.00  0.00     0.023 A 
ENDROOT
BRANCH   3   8
ATOM      8  C   UNL     1     -25.817  -2.752 -13.152  1.00  0.00     0.417 C 
ATOM      9  F   UNL     1     -25.052  -3.679 -12.506  1.00  0.00    -0.166 F 
ATOM     10  F   UNL     1     -26.776  -2.378 -12.258  1.00  0.00    -0.166 F 
ATOM     11  F   UNL     1     -26.481  -3.437 -14.127  1.00  0.00    -0.166 F 
ENDBRANCH   3   8
BRANCH   2  12
ATOM     12  N   UNL     1     -21.471  -0.495 -13.573  1.00  0.00    -0.308 N 
ATOM     13  C   UNL     1     -20.852  -0.328 -12.324  1.00  0.00     0.323 C 
ATOM     14  H   UNL     1     -20.857  -0.608 -14.375  1.00  0.00     0.171 HD
ATOM     15  O   UNL     1     -21.437  -0.179 -11.256  1.00  0.00    -0.248 OA
ATOM     16  N   UNL     1     -19.444  -0.356 -12.474  1.00  0.00    -0.308 N 
ATOM     17  H   UNL     1     -19.101  -0.487 -13.423  1.00  0.00     0.171 HD
BRANCH  16  18
ATOM     18  C   UNL     1     -18.460  -0.228 -11.493  1.00  0.00     0.046 A 
ATOM     19  C   UNL     1     -18.051  -1.353 -10.773  1.00  0.00     0.077 A 
ATOM     20  C   UNL     1     -17.889   1.032 -11.240  1.00  0.00     0.030 A 
ATOM     21  C   UNL     1     -17.076  -1.179  -9.813  1.00  0.00     0.174 A 
ATOM     22  C   UNL     1     -16.903   1.181 -10.262  1.00  0.00     0.053 A 
ATOM     23  O   UNL     1     -16.556  -2.154  -9.017  1.00  0.00    -0.395 OA
ATOM     24  C   UNL     1     -16.517   0.056  -9.564  1.00  0.00     0.172 A 
ATOM     25  C   UNL     1     -15.617  -1.386  -8.251  1.00  0.00     0.586 C 
ATOM     26  O   UNL     1     -15.575   0.010  -8.582  1.00  0.00    -0.395 OA
ATOM     27  F   UNL     1     -14.378  -1.911  -8.431  1.00  0.00    -0.125 F 
ATOM     28  F   UNL     1     -15.926  -1.510  -6.936  1.00  0.00    -0.125 F 
ENDBRANCH  16  18
ENDBRANCH   2  12
TORSDOF 3
ENDMDL
