REMARK  Name = 446853
REMARK                            x       y       z     vdW  Elec       q    Type
REMARK                         _______ _______ _______ _____ _____    ______ ____
ROOT
ATOM      1  S   LIG    1       -6.655   4.334  -5.361  0.00  0.00    +0.073 S 
ATOM      2  O   LIG    1       -7.525   4.950  -4.373  0.00  0.00    -0.150 OA
ATOM      3  O   LIG    1       -5.283   4.752  -5.538  0.00  0.00    -0.150 OA
ENDROOT
BRANCH   1   4
ATOM      4  C   LIG    1       -6.532   2.680  -4.797  0.00  0.00    +0.124 A 
ATOM      5  C   LIG    1       -7.694   1.895  -4.492  0.00  0.00    +0.037 A 
ATOM      6  C   LIG    1       -7.380   0.599  -4.152  0.00  0.00    +0.048 A 
ATOM      7  S   LIG    1       -5.699   0.330  -4.161  0.00  0.00    -0.093 S 
ATOM      8  C   LIG    1       -5.364   1.954  -4.637  0.00  0.00    +0.061 A 
BRANCH   8   9
ATOM      9  C   LIG    1       -3.983   2.379  -4.764  0.00  0.00    +0.080 C 
ATOM     10  O   LIG    1       -3.335   2.334  -5.796  0.00  0.00    -0.544 OA
ATOM     11  O   LIG    1       -3.471   2.882  -3.603  0.00  0.00    -0.544 OA
ENDBRANCH   8   9
ENDBRANCH   1   4
BRANCH   1  12
ATOM     12  N   LIG    1       -7.451   4.339  -6.864  0.00  0.00    -0.216 N 
ATOM     13  H   LIG    1       -8.195   4.950  -7.070  0.00  0.00    +0.174 HD
BRANCH  12  18
ATOM     14 CL   LIG    1       -5.243   0.340 -10.699  0.00  0.00    -0.084 Cl
ATOM     15  C   LIG    1       -5.902   1.498  -9.608  0.00  0.00    +0.041 A 
ATOM     16  C   LIG    1       -6.799   1.093  -8.620  0.00  0.00    +0.022 A 
ATOM     17  C   LIG    1       -7.315   2.033  -7.717  0.00  0.00    +0.026 A 
ATOM     18  C   LIG    1       -6.946   3.379  -7.813  0.00  0.00    +0.048 A 
ATOM     19  C   LIG    1       -6.047   3.777  -8.806  0.00  0.00    +0.026 A 
ATOM     20  C   LIG    1       -5.529   2.837  -9.708  0.00  0.00    +0.022 A 
ENDBRANCH  12  18
ENDBRANCH   1  12
TORSDOF 4
