MODEL 1
REMARK VINA RESULT:    -7.105      0.000      0.000
REMARK INTER + INTRA:          -9.017
REMARK INTER:                  -8.505
REMARK INTRA:                  -0.512
REMARK UNBOUND:                -0.250
REMARK  Name = 446853
REMARK                            x       y       z     vdW  Elec       q    Type
REMARK                         _______ _______ _______ _____ _____    ______ ____
ROOT
ATOM      1  S   LIG    1       -2.833   2.048  -2.125  0.00  0.00    +0.073 S 
ATOM      2  O   LIG    1       -3.219   2.836  -3.284  0.00  0.00    -0.150 OA
ATOM      3  O   LIG    1       -1.487   1.549  -1.954  0.00  0.00    -0.150 OA
ENDROOT
BRANCH   1   4
ATOM      4  C   LIG    1       -3.048   3.171  -0.798  0.00  0.00    +0.124 A 
ATOM      5  C   LIG    1       -3.482   4.522  -1.012  0.00  0.00    +0.037 A 
ATOM      6  C   LIG    1       -3.673   5.207   0.166  0.00  0.00    +0.048 A 
ATOM      7  S   LIG    1       -3.299   4.251   1.523  0.00  0.00    -0.093 S 
ATOM      8  C   LIG    1       -2.885   2.890   0.547  0.00  0.00    +0.061 A 
BRANCH   8   9
ATOM      9  C   LIG    1       -2.395   1.686   1.191  0.00  0.00    +0.080 C 
ATOM     10  O   LIG    1       -2.928   0.592   1.116  0.00  0.00    -0.544 OA
ATOM     11  O   LIG    1       -1.232   1.885   1.877  0.00  0.00    -0.544 OA
ENDBRANCH   8   9
ENDBRANCH   1   4
BRANCH   1  12
ATOM     12  N   LIG    1       -3.941   0.770  -1.944  0.00  0.00    -0.216 N 
ATOM     13  H   LIG    1       -3.978   0.209  -1.136  0.00  0.00    +0.174 HD
BRANCH  12  18
ATOM     14 CL   LIG    1       -7.646  -0.149  -6.526  0.00  0.00    -0.084 Cl
ATOM     15  C   LIG    1       -6.567   0.138  -5.216  0.00  0.00    +0.041 A 
ATOM     16  C   LIG    1       -6.935   1.003  -4.186  0.00  0.00    +0.022 A 
ATOM     17  C   LIG    1       -6.065   1.215  -3.106  0.00  0.00    +0.026 A 
ATOM     18  C   LIG    1       -4.822   0.576  -3.068  0.00  0.00    +0.048 A 
ATOM     19  C   LIG    1       -4.459  -0.288  -4.105  0.00  0.00    +0.026 A 
ATOM     20  C   LIG    1       -5.329  -0.502  -5.183  0.00  0.00    +0.022 A 
ENDBRANCH  12  18
ENDBRANCH   1  12
TORSDOF 4
ENDMDL
MODEL 2
REMARK VINA RESULT:    -6.802      2.015      2.805
REMARK INTER + INTRA:          -8.643
REMARK INTER:                  -8.055
REMARK INTRA:                  -0.588
REMARK UNBOUND:                -0.250
REMARK  Name = 446853
REMARK                            x       y       z     vdW  Elec       q    Type
REMARK                         _______ _______ _______ _____ _____    ______ ____
ROOT
ATOM      1  S   LIG    1       -5.179   1.751  -1.639  0.00  0.00    +0.073 S 
ATOM      2  O   LIG    1       -6.311   1.075  -1.029  0.00  0.00    -0.150 OA
ATOM      3  O   LIG    1       -5.334   2.978  -2.387  0.00  0.00    -0.150 OA
ENDROOT
BRANCH   1   4
ATOM      4  C   LIG    1       -4.205   2.210  -0.257  0.00  0.00    +0.124 A 
ATOM      5  C   LIG    1       -4.735   2.210   1.077  0.00  0.00    +0.037 A 
ATOM      6  C   LIG    1       -3.783   2.514   2.022  0.00  0.00    +0.048 A 
ATOM      7  S   LIG    1       -2.268   2.835   1.316  0.00  0.00    -0.093 S 
ATOM      8  C   LIG    1       -2.865   2.556  -0.279  0.00  0.00    +0.061 A 
BRANCH   8   9
ATOM      9  C   LIG    1       -1.974   2.749  -1.407  0.00  0.00    +0.080 C 
ATOM     10  O   LIG    1       -1.623   3.833  -1.838  0.00  0.00    -0.544 OA
ATOM     11  O   LIG    1       -1.521   1.573  -1.934  0.00  0.00    -0.544 OA
ENDBRANCH   8   9
ENDBRANCH   1   4
BRANCH   1  12
ATOM     12  N   LIG    1       -4.309   0.623  -2.569  0.00  0.00    -0.216 N 
ATOM     13  H   LIG    1       -3.658  -0.001  -2.176  0.00  0.00    +0.174 HD
BRANCH  12  18
ATOM     14 CL   LIG    1       -5.633   0.863  -8.380  0.00  0.00    -0.084 Cl
ATOM     15  C   LIG    1       -5.232   0.775  -6.708  0.00  0.00    +0.041 A 
ATOM     16  C   LIG    1       -4.191   1.550  -6.199  0.00  0.00    +0.022 A 
ATOM     17  C   LIG    1       -3.882   1.496  -4.832  0.00  0.00    +0.026 A 
ATOM     18  C   LIG    1       -4.605   0.655  -3.980  0.00  0.00    +0.048 A 
ATOM     19  C   LIG    1       -5.647  -0.120  -4.497  0.00  0.00    +0.026 A 
ATOM     20  C   LIG    1       -5.956  -0.065  -5.863  0.00  0.00    +0.022 A 
ENDBRANCH  12  18
ENDBRANCH   1  12
TORSDOF 4
ENDMDL
MODEL 3
REMARK VINA RESULT:    -6.576      3.785      6.648
REMARK INTER + INTRA:          -8.364
REMARK INTER:                  -7.981
REMARK INTRA:                  -0.383
REMARK UNBOUND:                -0.250
REMARK  Name = 446853
REMARK                            x       y       z     vdW  Elec       q    Type
REMARK                         _______ _______ _______ _____ _____    ______ ____
ROOT
ATOM      1  S   LIG    1       -3.308   2.041  -1.517  0.00  0.00    +0.073 S 
ATOM      2  O   LIG    1       -1.975   1.511  -1.754  0.00  0.00    -0.150 OA
ATOM      3  O   LIG    1       -3.594   3.455  -1.600  0.00  0.00    -0.150 OA
ENDROOT
BRANCH   1   4
ATOM      4  C   LIG    1       -4.247   1.335  -2.817  0.00  0.00    +0.124 A 
ATOM      5  C   LIG    1       -3.624   0.732  -3.961  0.00  0.00    +0.037 A 
ATOM      6  C   LIG    1       -4.536   0.160  -4.817  0.00  0.00    +0.048 A 
ATOM      7  S   LIG    1       -6.136   0.374  -4.276  0.00  0.00    -0.093 S 
ATOM      8  C   LIG    1       -5.626   1.232  -2.868  0.00  0.00    +0.061 A 
BRANCH   8   9
ATOM      9  C   LIG    1       -6.630   1.765  -1.967  0.00  0.00    +0.080 C 
ATOM     10  O   LIG    1       -7.370   2.699  -2.225  0.00  0.00    -0.544 OA
ATOM     11  O   LIG    1       -6.701   1.084  -0.786  0.00  0.00    -0.544 OA
ENDBRANCH   8   9
ENDBRANCH   1   4
BRANCH   1  12
ATOM     12  N   LIG    1       -3.880   1.430  -0.036  0.00  0.00    -0.216 N 
ATOM     13  H   LIG    1       -4.692   0.879   0.033  0.00  0.00    +0.174 HD
BRANCH  12  18
ATOM     14 CL   LIG    1       -0.688   2.914   4.778  0.00  0.00    -0.084 Cl
ATOM     15  C   LIG    1       -1.586   2.482   3.374  0.00  0.00    +0.041 A 
ATOM     16  C   LIG    1       -1.886   1.143   3.124  0.00  0.00    +0.022 A 
ATOM     17  C   LIG    1       -2.640   0.795   1.994  0.00  0.00    +0.026 A 
ATOM     18  C   LIG    1       -3.078   1.785   1.108  0.00  0.00    +0.048 A 
ATOM     19  C   LIG    1       -2.772   3.124   1.365  0.00  0.00    +0.026 A 
ATOM     20  C   LIG    1       -2.021   3.472   2.495  0.00  0.00    +0.022 A 
ENDBRANCH  12  18
ENDBRANCH   1  12
TORSDOF 4
ENDMDL
MODEL 4
REMARK VINA RESULT:    -6.515      1.781      2.245
REMARK INTER + INTRA:          -8.288
REMARK INTER:                  -7.693
REMARK INTRA:                  -0.595
REMARK UNBOUND:                -0.250
REMARK  Name = 446853
REMARK                            x       y       z     vdW  Elec       q    Type
REMARK                         _______ _______ _______ _____ _____    ______ ____
ROOT
ATOM      1  S   LIG    1       -2.834   2.046  -2.218  0.00  0.00    +0.073 S 
ATOM      2  O   LIG    1       -3.217   2.841  -3.372  0.00  0.00    -0.150 OA
ATOM      3  O   LIG    1       -1.497   1.518  -2.062  0.00  0.00    -0.150 OA
ENDROOT
BRANCH   1   4
ATOM      4  C   LIG    1       -3.008   3.175  -0.890  0.00  0.00    +0.124 A 
ATOM      5  C   LIG    1       -3.411   4.536  -1.100  0.00  0.00    +0.037 A 
ATOM      6  C   LIG    1       -3.573   5.226   0.079  0.00  0.00    +0.048 A 
ATOM      7  S   LIG    1       -3.208   4.262   1.434  0.00  0.00    -0.093 S 
ATOM      8  C   LIG    1       -2.837   2.890   0.454  0.00  0.00    +0.061 A 
BRANCH   8   9
ATOM      9  C   LIG    1       -2.369   1.675   1.094  0.00  0.00    +0.080 C 
ATOM     10  O   LIG    1       -2.898   0.583   0.981  0.00  0.00    -0.544 OA
ATOM     11  O   LIG    1       -1.231   1.862   1.824  0.00  0.00    -0.544 OA
ENDBRANCH   8   9
ENDBRANCH   1   4
BRANCH   1  12
ATOM     12  N   LIG    1       -3.967   0.793  -2.021  0.00  0.00    -0.216 N 
ATOM     13  H   LIG    1       -3.709  -0.156  -1.974  0.00  0.00    +0.174 HD
BRANCH  12  18
ATOM     14 CL   LIG    1       -9.675   2.472  -1.615  0.00  0.00    -0.084 Cl
ATOM     15  C   LIG    1       -8.020   2.013  -1.733  0.00  0.00    +0.041 A 
ATOM     16  C   LIG    1       -7.237   1.927  -0.583  0.00  0.00    +0.022 A 
ATOM     17  C   LIG    1       -5.896   1.528  -0.678  0.00  0.00    +0.026 A 
ATOM     18  C   LIG    1       -5.337   1.233  -1.926  0.00  0.00    +0.048 A 
ATOM     19  C   LIG    1       -6.128   1.323  -3.075  0.00  0.00    +0.026 A 
ATOM     20  C   LIG    1       -7.469   1.719  -2.979  0.00  0.00    +0.022 A 
ENDBRANCH  12  18
ENDBRANCH   1  12
TORSDOF 4
ENDMDL
MODEL 5
REMARK VINA RESULT:    -6.455      2.515      3.137
REMARK INTER + INTRA:          -8.215
REMARK INTER:                  -7.842
REMARK INTRA:                  -0.373
REMARK UNBOUND:                -0.250
REMARK  Name = 446853
REMARK                            x       y       z     vdW  Elec       q    Type
REMARK                         _______ _______ _______ _____ _____    ______ ____
ROOT
ATOM      1  S   LIG    1       -4.765   1.899  -1.338  0.00  0.00    +0.073 S 
ATOM      2  O   LIG    1       -6.031   1.186  -1.316  0.00  0.00    -0.150 OA
ATOM      3  O   LIG    1       -4.686   3.310  -1.638  0.00  0.00    -0.150 OA
ENDROOT
BRANCH   1   4
ATOM      4  C   LIG    1       -4.220   1.781   0.323  0.00  0.00    +0.124 A 
ATOM      5  C   LIG    1       -3.065   1.011   0.689  0.00  0.00    +0.037 A 
ATOM      6  C   LIG    1       -2.759   1.124   2.026  0.00  0.00    +0.048 A 
ATOM      7  S   LIG    1       -3.870   2.116   2.850  0.00  0.00    -0.093 S 
ATOM      8  C   LIG    1       -4.777   2.423   1.415  0.00  0.00    +0.061 A 
BRANCH   8   9
ATOM      9  C   LIG    1       -5.979   3.231   1.503  0.00  0.00    +0.080 C 
ATOM     10  O   LIG    1       -5.994   4.445   1.601  0.00  0.00    -0.544 OA
ATOM     11  O   LIG    1       -7.124   2.491   1.427  0.00  0.00    -0.544 OA
ENDBRANCH   8   9
ENDBRANCH   1   4
BRANCH   1  12
ATOM     12  N   LIG    1       -3.678   1.045  -2.330  0.00  0.00    -0.216 N 
ATOM     13  H   LIG    1       -2.803   0.726  -2.010  0.00  0.00    +0.174 HD
BRANCH  12  18
ATOM     14 CL   LIG    1       -5.732   0.196  -7.864  0.00  0.00    -0.084 Cl
ATOM     15  C   LIG    1       -5.115   0.431  -6.274  0.00  0.00    +0.041 A 
ATOM     16  C   LIG    1       -4.414   1.595  -5.963  0.00  0.00    +0.022 A 
ATOM     17  C   LIG    1       -3.934   1.796  -4.661  0.00  0.00    +0.026 A 
ATOM     18  C   LIG    1       -4.143   0.824  -3.677  0.00  0.00    +0.048 A 
ATOM     19  C   LIG    1       -4.845  -0.341  -3.996  0.00  0.00    +0.026 A 
ATOM     20  C   LIG    1       -5.326  -0.541  -5.297  0.00  0.00    +0.022 A 
ENDBRANCH  12  18
ENDBRANCH   1  12
TORSDOF 4
ENDMDL
