MODEL 1
REMARK VINA RESULT:    -6.977      0.000      0.000
REMARK INTER + INTRA:          -8.630
REMARK INTER:                  -8.095
REMARK INTRA:                  -0.535
REMARK UNBOUND:                -0.429
REMARK SMILES O=C(Nc1ccc2c(c1)OC(F)(F)O2)Nc1ccc(Cl)c(C(F)(F)F)c1
REMARK SMILES IDX 20 1 16 2 21 3 26 4 17 5 19 6 18 7 22 8 23 9 24 10 25 11
REMARK SMILES IDX 15 12 2 13 1 15 3 16 4 18 9 19 5 20 8 21 6 22 10 23 7 24
REMARK SMILES IDX 11 25 14 26 12 27 13 28
REMARK H PARENT 15 14 3 17
REMARK Flexibility Score: inf
ROOT
ATOM      1  Cl  UNL     1      98.105  13.027  18.142  1.00  0.00    -0.084 Cl
ATOM      2  C   UNL     1      95.792   9.894  20.426  1.00  0.00     0.043 A 
ATOM      3  C   UNL     1      96.093  11.211  18.423  1.00  0.00     0.076 A 
ATOM      4  C   UNL     1      95.387  10.243  19.137  1.00  0.00    -0.025 A 
ATOM      5  C   UNL     1      96.903  10.511  20.999  1.00  0.00    -0.037 A 
ATOM      6  C   UNL     1      97.205  11.828  18.996  1.00  0.00     0.053 A 
ATOM      7  C   UNL     1      97.611  11.478  20.285  1.00  0.00    -0.041 A 
ENDROOT
BRANCH   3   8
ATOM      8  C   UNL     1      95.629  11.556  17.045  1.00  0.00     0.417 C 
ATOM      9  F   UNL     1      94.488  10.894  16.697  1.00  0.00    -0.166 F 
ATOM     10  F   UNL     1      95.349  12.882  16.881  1.00  0.00    -0.166 F 
ATOM     11  F   UNL     1      96.539  11.259  16.073  1.00  0.00    -0.166 F 
ENDBRANCH   3   8
BRANCH   2  12
ATOM     12  N   UNL     1      95.074   8.913  21.152  1.00  0.00    -0.308 N 
ATOM     13  C   UNL     1      93.889   9.077  21.887  1.00  0.00     0.323 C 
ATOM     14  H   UNL     1      95.473   7.978  21.133  1.00  0.00     0.171 HD
ATOM     15  O   UNL     1      93.275  10.132  22.016  1.00  0.00    -0.248 OA
ATOM     16  N   UNL     1      93.501   7.842  22.461  1.00  0.00    -0.308 N 
ATOM     17  H   UNL     1      94.110   7.051  22.268  1.00  0.00     0.171 HD
BRANCH  16  18
ATOM     18  C   UNL     1      92.392   7.564  23.261  1.00  0.00     0.046 A 
ATOM     19  C   UNL     1      92.332   8.070  24.561  1.00  0.00     0.008 A 
ATOM     20  C   UNL     1      91.346   6.775  22.750  1.00  0.00    -0.035 A 
ATOM     21  C   UNL     1      91.216   7.769  25.315  1.00  0.00     0.174 A 
ATOM     22  C   UNL     1      90.227   6.484  23.533  1.00  0.00    -0.014 A 
ATOM     23  O   UNL     1      90.984   8.173  26.594  1.00  0.00    -0.395 OA
ATOM     24  C   UNL     1      90.190   6.997  24.814  1.00  0.00     0.172 A 
ATOM     25  C   UNL     1      89.705   7.565  26.827  1.00  0.00     0.586 C 
ATOM     26  O   UNL     1      89.186   6.819  25.716  1.00  0.00    -0.395 OA
ATOM     27  F   UNL     1      88.815   8.536  27.151  1.00  0.00    -0.125 F 
ATOM     28  F   UNL     1      89.809   6.735  27.895  1.00  0.00    -0.125 F 
ENDBRANCH  16  18
ENDBRANCH   2  12
TORSDOF 3
ENDMDL
MODEL 2
REMARK VINA RESULT:    -6.953      3.507      9.604
REMARK INTER + INTRA:          -8.601
REMARK INTER:                  -8.170
REMARK INTRA:                  -0.431
REMARK UNBOUND:                -0.429
REMARK SMILES O=C(Nc1ccc2c(c1)OC(F)(F)O2)Nc1ccc(Cl)c(C(F)(F)F)c1
REMARK SMILES IDX 20 1 16 2 21 3 26 4 17 5 19 6 18 7 22 8 23 9 24 10 25 11
REMARK SMILES IDX 15 12 2 13 1 15 3 16 4 18 9 19 5 20 8 21 6 22 10 23 7 24
REMARK SMILES IDX 11 25 14 26 12 27 13 28
REMARK H PARENT 15 14 3 17
REMARK Flexibility Score: inf
ROOT
ATOM      1  Cl  UNL     1      89.905   7.617  26.860  1.00  0.00    -0.084 Cl
ATOM      2  C   UNL     1      92.838   8.040  23.454  1.00  0.00     0.043 A 
ATOM      3  C   UNL     1      90.818   7.067  24.353  1.00  0.00     0.076 A 
ATOM      4  C   UNL     1      91.730   7.206  23.306  1.00  0.00    -0.025 A 
ATOM      5  C   UNL     1      93.033   8.735  24.647  1.00  0.00    -0.037 A 
ATOM      6  C   UNL     1      91.013   7.762  25.546  1.00  0.00     0.053 A 
ATOM      7  C   UNL     1      92.122   8.597  25.694  1.00  0.00    -0.041 A 
ENDROOT
BRANCH   3   8
ATOM      8  C   UNL     1      89.642   6.165  24.154  1.00  0.00     0.417 C 
ATOM      9  F   UNL     1      89.772   5.374  23.051  1.00  0.00    -0.166 F 
ATOM     10  F   UNL     1      89.430   5.311  25.198  1.00  0.00    -0.166 F 
ATOM     11  F   UNL     1      88.464   6.834  23.992  1.00  0.00    -0.166 F 
ENDBRANCH   3   8
BRANCH   2  12
ATOM     12  N   UNL     1      93.765   8.180  22.393  1.00  0.00    -0.308 N 
ATOM     13  C   UNL     1      94.053   9.332  21.644  1.00  0.00     0.323 C 
ATOM     14  H   UNL     1      94.280   7.338  22.152  1.00  0.00     0.171 HD
ATOM     15  O   UNL     1      93.527  10.430  21.800  1.00  0.00    -0.248 OA
ATOM     16  N   UNL     1      95.045   9.043  20.676  1.00  0.00    -0.308 N 
ATOM     17  H   UNL     1      95.388   8.086  20.663  1.00  0.00     0.171 HD
BRANCH  16  18
ATOM     18  C   UNL     1      95.615   9.898  19.731  1.00  0.00     0.046 A 
ATOM     19  C   UNL     1      95.008  10.055  18.483  1.00  0.00     0.008 A 
ATOM     20  C   UNL     1      96.797  10.592  20.045  1.00  0.00    -0.035 A 
ATOM     21  C   UNL     1      95.608  10.910  17.582  1.00  0.00     0.174 A 
ATOM     22  C   UNL     1      97.386  11.452  19.116  1.00  0.00    -0.014 A 
ATOM     23  O   UNL     1      95.162  11.188  16.327  1.00  0.00    -0.395 OA
ATOM     24  C   UNL     1      96.766  11.592  17.890  1.00  0.00     0.172 A 
ATOM     25  C   UNL     1      96.172  12.112  15.894  1.00  0.00     0.586 C 
ATOM     26  O   UNL     1      97.192  12.381  16.866  1.00  0.00    -0.395 OA
ATOM     27  F   UNL     1      95.573  13.282  15.558  1.00  0.00    -0.125 F 
ATOM     28  F   UNL     1      96.760  11.619  14.775  1.00  0.00    -0.125 F 
ENDBRANCH  16  18
ENDBRANCH   2  12
TORSDOF 3
ENDMDL
MODEL 3
REMARK VINA RESULT:    -6.399      1.477      2.197
REMARK INTER + INTRA:          -7.950
REMARK INTER:                  -7.390
REMARK INTRA:                  -0.560
REMARK UNBOUND:                -0.429
REMARK SMILES O=C(Nc1ccc2c(c1)OC(F)(F)O2)Nc1ccc(Cl)c(C(F)(F)F)c1
REMARK SMILES IDX 20 1 16 2 21 3 26 4 17 5 19 6 18 7 22 8 23 9 24 10 25 11
REMARK SMILES IDX 15 12 2 13 1 15 3 16 4 18 9 19 5 20 8 21 6 22 10 23 7 24
REMARK SMILES IDX 11 25 14 26 12 27 13 28
REMARK H PARENT 15 14 3 17
REMARK Flexibility Score: inf
ROOT
ATOM      1  Cl  UNL     1      98.278  14.151  17.351  1.00  0.00    -0.084 Cl
ATOM      2  C   UNL     1      96.388  10.755  19.648  1.00  0.00     0.043 A 
ATOM      3  C   UNL     1      96.387  12.227  17.733  1.00  0.00     0.076 A 
ATOM      4  C   UNL     1      95.812  11.178  18.450  1.00  0.00    -0.025 A 
ATOM      5  C   UNL     1      97.538  11.380  20.128  1.00  0.00    -0.037 A 
ATOM      6  C   UNL     1      97.537  12.853  18.213  1.00  0.00     0.053 A 
ATOM      7  C   UNL     1      98.114  12.429  19.411  1.00  0.00    -0.041 A 
ENDROOT
BRANCH   3   8
ATOM      8  C   UNL     1      95.741  12.650  16.452  1.00  0.00     0.417 C 
ATOM      9  F   UNL     1      95.381  13.965  16.458  1.00  0.00    -0.166 F 
ATOM     10  F   UNL     1      96.546  12.493  15.361  1.00  0.00    -0.166 F 
ATOM     11  F   UNL     1      94.604  11.956  16.161  1.00  0.00    -0.166 F 
ENDBRANCH   3   8
BRANCH   2  12
ATOM     12  N   UNL     1      95.803   9.692  20.377  1.00  0.00    -0.308 N 
ATOM     13  C   UNL     1      94.812   9.766  21.369  1.00  0.00     0.323 C 
ATOM     14  H   UNL     1      96.151   8.764  20.148  1.00  0.00     0.171 HD
ATOM     15  O   UNL     1      94.283  10.799  21.767  1.00  0.00    -0.248 OA
ATOM     16  N   UNL     1      94.507   8.468  21.845  1.00  0.00    -0.308 N 
ATOM     17  H   UNL     1      95.028   7.704  21.421  1.00  0.00     0.171 HD
BRANCH  16  18
ATOM     18  C   UNL     1      93.585   8.094  22.824  1.00  0.00     0.046 A 
ATOM     19  C   UNL     1      92.353   7.557  22.445  1.00  0.00     0.008 A 
ATOM     20  C   UNL     1      93.905   8.263  24.183  1.00  0.00    -0.035 A 
ATOM     21  C   UNL     1      91.474   7.202  23.447  1.00  0.00     0.174 A 
ATOM     22  C   UNL     1      92.998   7.896  25.179  1.00  0.00    -0.014 A 
ATOM     23  O   UNL     1      90.235   6.665  23.269  1.00  0.00    -0.395 OA
ATOM     24  C   UNL     1      91.788   7.366  24.779  1.00  0.00     0.172 A 
ATOM     25  C   UNL     1      89.820   6.519  24.636  1.00  0.00     0.586 C 
ATOM     26  O   UNL     1      90.786   6.954  25.603  1.00  0.00    -0.395 OA
ATOM     27  F   UNL     1      89.534   5.213  24.864  1.00  0.00    -0.125 F 
ATOM     28  F   UNL     1      88.676   7.224  24.818  1.00  0.00    -0.125 F 
ENDBRANCH  16  18
ENDBRANCH   2  12
TORSDOF 3
ENDMDL
MODEL 4
REMARK VINA RESULT:    -6.354      3.754      4.404
REMARK INTER + INTRA:          -7.897
REMARK INTER:                  -7.324
REMARK INTRA:                  -0.573
REMARK UNBOUND:                -0.429
REMARK SMILES O=C(Nc1ccc2c(c1)OC(F)(F)O2)Nc1ccc(Cl)c(C(F)(F)F)c1
REMARK SMILES IDX 20 1 16 2 21 3 26 4 17 5 19 6 18 7 22 8 23 9 24 10 25 11
REMARK SMILES IDX 15 12 2 13 1 15 3 16 4 18 9 19 5 20 8 21 6 22 10 23 7 24
REMARK SMILES IDX 11 25 14 26 12 27 13 28
REMARK H PARENT 15 14 3 17
REMARK Flexibility Score: inf
ROOT
ATOM      1  Cl  UNL     1     101.259   9.912  20.137  1.00  0.00    -0.084 Cl
ATOM      2  C   UNL     1      97.661   9.309  22.796  1.00  0.00     0.043 A 
ATOM      3  C   UNL     1      99.583   8.393  21.655  1.00  0.00     0.076 A 
ATOM      4  C   UNL     1      98.470   8.217  22.478  1.00  0.00    -0.025 A 
ATOM      5  C   UNL     1      97.966  10.573  22.294  1.00  0.00    -0.037 A 
ATOM      6  C   UNL     1      99.888   9.657  21.153  1.00  0.00     0.053 A 
ATOM      7  C   UNL     1      99.080  10.749  21.473  1.00  0.00    -0.041 A 
ENDROOT
BRANCH   3   8
ATOM      8  C   UNL     1     100.426   7.199  21.339  1.00  0.00     0.417 C 
ATOM      9  F   UNL     1     100.512   6.961  19.999  1.00  0.00    -0.166 F 
ATOM     10  F   UNL     1     101.714   7.312  21.776  1.00  0.00    -0.166 F 
ATOM     11  F   UNL     1      99.960   6.042  21.890  1.00  0.00    -0.166 F 
ENDBRANCH   3   8
BRANCH   2  12
ATOM     12  N   UNL     1      96.530   9.131  23.628  1.00  0.00    -0.308 N 
ATOM     13  C   UNL     1      95.208   8.854  23.243  1.00  0.00     0.323 C 
ATOM     14  H   UNL     1      96.705   9.218  24.626  1.00  0.00     0.171 HD
ATOM     15  O   UNL     1      94.820   8.718  22.087  1.00  0.00    -0.248 OA
ATOM     16  N   UNL     1      94.382   8.752  24.388  1.00  0.00    -0.308 N 
ATOM     17  H   UNL     1      94.844   8.889  25.284  1.00  0.00     0.171 HD
BRANCH  16  18
ATOM     18  C   UNL     1      93.013   8.488  24.454  1.00  0.00     0.046 A 
ATOM     19  C   UNL     1      92.561   7.167  24.428  1.00  0.00     0.008 A 
ATOM     20  C   UNL     1      92.102   9.555  24.544  1.00  0.00    -0.035 A 
ATOM     21  C   UNL     1      91.199   6.954  24.495  1.00  0.00     0.174 A 
ATOM     22  C   UNL     1      90.728   9.314  24.611  1.00  0.00    -0.014 A 
ATOM     23  O   UNL     1      90.579   5.743  24.484  1.00  0.00    -0.395 OA
ATOM     24  C   UNL     1      90.307   8.000  24.585  1.00  0.00     0.172 A 
ATOM     25  C   UNL     1      89.207   6.156  24.574  1.00  0.00     0.586 C 
ATOM     26  O   UNL     1      89.014   7.576  24.640  1.00  0.00    -0.395 OA
ATOM     27  F   UNL     1      88.657   5.590  25.677  1.00  0.00    -0.125 F 
ATOM     28  F   UNL     1      88.539   5.677  23.494  1.00  0.00    -0.125 F 
ENDBRANCH  16  18
ENDBRANCH   2  12
TORSDOF 3
ENDMDL
MODEL 5
REMARK VINA RESULT:    -6.283     20.671     22.470
REMARK INTER + INTRA:          -7.814
REMARK INTER:                  -7.233
REMARK INTRA:                  -0.581
REMARK UNBOUND:                -0.429
REMARK SMILES O=C(Nc1ccc2c(c1)OC(F)(F)O2)Nc1ccc(Cl)c(C(F)(F)F)c1
REMARK SMILES IDX 20 1 16 2 21 3 26 4 17 5 19 6 18 7 22 8 23 9 24 10 25 11
REMARK SMILES IDX 15 12 2 13 1 15 3 16 4 18 9 19 5 20 8 21 6 22 10 23 7 24
REMARK SMILES IDX 11 25 14 26 12 27 13 28
REMARK H PARENT 15 14 3 17
REMARK Flexibility Score: inf
ROOT
ATOM      1  Cl  UNL     1     101.253 -10.551  25.761  1.00  0.00    -0.084 Cl
ATOM      2  C   UNL     1      97.160 -12.407  25.333  1.00  0.00     0.043 A 
ATOM      3  C   UNL     1      98.545 -10.566  26.060  1.00  0.00     0.076 A 
ATOM      4  C   UNL     1      97.284 -11.148  25.921  1.00  0.00    -0.025 A 
ATOM      5  C   UNL     1      98.294 -13.082  24.882  1.00  0.00    -0.037 A 
ATOM      6  C   UNL     1      99.679 -11.241  25.610  1.00  0.00     0.053 A 
ATOM      7  C   UNL     1      99.554 -12.500  25.020  1.00  0.00    -0.041 A 
ENDROOT
BRANCH   3   8
ATOM      8  C   UNL     1      98.636  -9.215  26.694  1.00  0.00     0.417 C 
ATOM      9  F   UNL     1      97.414  -8.710  27.025  1.00  0.00    -0.166 F 
ATOM     10  F   UNL     1      99.364  -9.206  27.850  1.00  0.00    -0.166 F 
ATOM     11  F   UNL     1      99.220  -8.277  25.895  1.00  0.00    -0.166 F 
ENDBRANCH   3   8
BRANCH   2  12
ATOM     12  N   UNL     1      95.882 -12.999  25.194  1.00  0.00    -0.308 N 
ATOM     13  C   UNL     1      95.025 -12.956  24.082  1.00  0.00     0.323 C 
ATOM     14  H   UNL     1      95.551 -13.518  26.004  1.00  0.00     0.171 HD
ATOM     15  O   UNL     1      95.263 -12.379  23.026  1.00  0.00    -0.248 OA
ATOM     16  N   UNL     1      93.840 -13.680  24.357  1.00  0.00    -0.308 N 
ATOM     17  H   UNL     1      93.782 -14.106  25.279  1.00  0.00     0.171 HD
BRANCH  16  18
ATOM     18  C   UNL     1      92.735 -13.887  23.530  1.00  0.00     0.046 A 
ATOM     19  C   UNL     1      91.703 -12.946  23.505  1.00  0.00     0.008 A 
ATOM     20  C   UNL     1      92.669 -15.043  22.732  1.00  0.00    -0.035 A 
ATOM     21  C   UNL     1      90.631 -13.193  22.672  1.00  0.00     0.174 A 
ATOM     22  C   UNL     1      91.573 -15.271  21.897  1.00  0.00    -0.014 A 
ATOM     23  O   UNL     1      89.541 -12.393  22.516  1.00  0.00    -0.395 OA
ATOM     24  C   UNL     1      90.568 -14.325  21.889  1.00  0.00     0.172 A 
ATOM     25  C   UNL     1      88.798 -13.156  21.552  1.00  0.00     0.586 C 
ATOM     26  O   UNL     1      89.430 -14.377  21.143  1.00  0.00    -0.395 OA
ATOM     27  F   UNL     1      88.592 -12.385  20.456  1.00  0.00    -0.125 F 
ATOM     28  F   UNL     1      87.583 -13.451  22.078  1.00  0.00    -0.125 F 
ENDBRANCH  16  18
ENDBRANCH   2  12
TORSDOF 3
ENDMDL
MODEL 6
REMARK VINA RESULT:    -6.280     22.170     23.948
REMARK INTER + INTRA:          -7.811
REMARK INTER:                  -7.263
REMARK INTRA:                  -0.548
REMARK UNBOUND:                -0.429
REMARK SMILES O=C(Nc1ccc2c(c1)OC(F)(F)O2)Nc1ccc(Cl)c(C(F)(F)F)c1
REMARK SMILES IDX 20 1 16 2 21 3 26 4 17 5 19 6 18 7 22 8 23 9 24 10 25 11
REMARK SMILES IDX 15 12 2 13 1 15 3 16 4 18 9 19 5 20 8 21 6 22 10 23 7 24
REMARK SMILES IDX 11 25 14 26 12 27 13 28
REMARK H PARENT 15 14 3 17
REMARK Flexibility Score: inf
ROOT
ATOM      1  Cl  UNL     1      88.338 -15.026  24.237  1.00  0.00    -0.084 Cl
ATOM      2  C   UNL     1      92.358 -13.032  23.744  1.00  0.00     0.043 A 
ATOM      3  C   UNL     1      90.135 -13.468  22.907  1.00  0.00     0.076 A 
ATOM      4  C   UNL     1      91.380 -12.855  22.766  1.00  0.00    -0.025 A 
ATOM      5  C   UNL     1      92.091 -13.819  24.864  1.00  0.00    -0.037 A 
ATOM      6  C   UNL     1      89.868 -14.256  24.026  1.00  0.00     0.053 A 
ATOM      7  C   UNL     1      90.846 -14.431  25.006  1.00  0.00    -0.041 A 
ENDROOT
BRANCH   3   8
ATOM      8  C   UNL     1      89.112 -13.253  21.838  1.00  0.00     0.417 C 
ATOM      9  F   UNL     1      87.926 -12.800  22.334  1.00  0.00    -0.166 F 
ATOM     10  F   UNL     1      89.492 -12.337  20.899  1.00  0.00    -0.166 F 
ATOM     11  F   UNL     1      88.812 -14.383  21.136  1.00  0.00    -0.166 F 
ENDBRANCH   3   8
BRANCH   2  12
ATOM     12  N   UNL     1      93.623 -12.412  23.600  1.00  0.00    -0.308 N 
ATOM     13  C   UNL     1      94.760 -12.911  22.945  1.00  0.00     0.323 C 
ATOM     14  H   UNL     1      93.709 -11.493  24.027  1.00  0.00     0.171 HD
ATOM     15  O   UNL     1      94.833 -13.996  22.379  1.00  0.00    -0.248 OA
ATOM     16  N   UNL     1      95.818 -11.973  23.032  1.00  0.00    -0.308 N 
ATOM     17  H   UNL     1      95.611 -11.114  23.535  1.00  0.00     0.171 HD
BRANCH  16  18
ATOM     18  C   UNL     1      97.113 -12.071  22.520  1.00  0.00     0.046 A 
ATOM     19  C   UNL     1      97.345 -11.800  21.170  1.00  0.00     0.008 A 
ATOM     20  C   UNL     1      98.170 -12.444  23.368  1.00  0.00    -0.035 A 
ATOM     21  C   UNL     1      98.640 -11.909  20.708  1.00  0.00     0.174 A 
ATOM     22  C   UNL     1      99.474 -12.548  22.876  1.00  0.00    -0.014 A 
ATOM     23  O   UNL     1      99.054 -11.684  19.431  1.00  0.00    -0.395 OA
ATOM     24  C   UNL     1      99.677 -12.273  21.539  1.00  0.00     0.172 A 
ATOM     25  C   UNL     1     100.458 -11.950  19.565  1.00  0.00     0.586 C 
ATOM     26  O   UNL     1     100.872 -12.323  20.887  1.00  0.00    -0.395 OA
ATOM     27  F   UNL     1     101.147 -10.843  19.190  1.00  0.00    -0.125 F 
ATOM     28  F   UNL     1     100.793 -12.948  18.709  1.00  0.00    -0.125 F 
ENDBRANCH  16  18
ENDBRANCH   2  12
TORSDOF 3
ENDMDL
MODEL 7
REMARK VINA RESULT:    -6.274      6.291      8.937
REMARK INTER + INTRA:          -7.803
REMARK INTER:                  -7.355
REMARK INTRA:                  -0.448
REMARK UNBOUND:                -0.429
REMARK SMILES O=C(Nc1ccc2c(c1)OC(F)(F)O2)Nc1ccc(Cl)c(C(F)(F)F)c1
REMARK SMILES IDX 20 1 16 2 21 3 26 4 17 5 19 6 18 7 22 8 23 9 24 10 25 11
REMARK SMILES IDX 15 12 2 13 1 15 3 16 4 18 9 19 5 20 8 21 6 22 10 23 7 24
REMARK SMILES IDX 11 25 14 26 12 27 13 28
REMARK H PARENT 15 14 3 17
REMARK Flexibility Score: inf
ROOT
ATOM      1  Cl  UNL     1      92.074   3.415  13.188  1.00  0.00    -0.084 Cl
ATOM      2  C   UNL     1      94.199   6.068  16.160  1.00  0.00     0.043 A 
ATOM      3  C   UNL     1      92.473   4.448  15.678  1.00  0.00     0.076 A 
ATOM      4  C   UNL     1      93.137   5.270  16.588  1.00  0.00    -0.025 A 
ATOM      5  C   UNL     1      94.596   6.042  14.824  1.00  0.00    -0.037 A 
ATOM      6  C   UNL     1      92.870   4.422  14.341  1.00  0.00     0.053 A 
ATOM      7  C   UNL     1      93.932   5.219  13.914  1.00  0.00    -0.041 A 
ENDROOT
BRANCH   3   8
ATOM      8  C   UNL     1      91.341   3.607  16.176  1.00  0.00     0.417 C 
ATOM      9  F   UNL     1      91.673   2.287  16.267  1.00  0.00    -0.166 F 
ATOM     10  F   UNL     1      90.906   3.963  17.420  1.00  0.00    -0.166 F 
ATOM     11  F   UNL     1      90.235   3.656  15.380  1.00  0.00    -0.166 F 
ENDBRANCH   3   8
BRANCH   2  12
ATOM     12  N   UNL     1      94.872   6.904  17.083  1.00  0.00    -0.308 N 
ATOM     13  C   UNL     1      94.576   8.235  17.418  1.00  0.00     0.323 C 
ATOM     14  H   UNL     1      95.666   6.480  17.555  1.00  0.00     0.171 HD
ATOM     15  O   UNL     1      93.658   8.897  16.948  1.00  0.00    -0.248 OA
ATOM     16  N   UNL     1      95.496   8.704  18.387  1.00  0.00    -0.308 N 
ATOM     17  H   UNL     1      96.207   8.041  18.684  1.00  0.00     0.171 HD
BRANCH  16  18
ATOM     18  C   UNL     1      95.560   9.962  18.989  1.00  0.00     0.046 A 
ATOM     19  C   UNL     1      95.915  11.077  18.227  1.00  0.00     0.008 A 
ATOM     20  C   UNL     1      95.268  10.093  20.358  1.00  0.00    -0.035 A 
ATOM     21  C   UNL     1      95.965  12.300  18.866  1.00  0.00     0.174 A 
ATOM     22  C   UNL     1      95.325  11.342  20.982  1.00  0.00    -0.014 A 
ATOM     23  O   UNL     1      96.289  13.489  18.288  1.00  0.00    -0.395 OA
ATOM     24  C   UNL     1      95.677  12.429  20.207  1.00  0.00     0.172 A 
ATOM     25  C   UNL     1      96.171  14.364  19.419  1.00  0.00     0.586 C 
ATOM     26  O   UNL     1      95.785  13.715  20.639  1.00  0.00    -0.395 OA
ATOM     27  F   UNL     1      95.258  15.325  19.130  1.00  0.00    -0.125 F 
ATOM     28  F   UNL     1      97.363  14.981  19.616  1.00  0.00    -0.125 F 
ENDBRANCH  16  18
ENDBRANCH   2  12
TORSDOF 3
ENDMDL
MODEL 8
REMARK VINA RESULT:    -6.273      3.419      9.621
REMARK INTER + INTRA:          -7.802
REMARK INTER:                  -7.409
REMARK INTRA:                  -0.392
REMARK UNBOUND:                -0.429
REMARK SMILES O=C(Nc1ccc2c(c1)OC(F)(F)O2)Nc1ccc(Cl)c(C(F)(F)F)c1
REMARK SMILES IDX 20 1 16 2 21 3 26 4 17 5 19 6 18 7 22 8 23 9 24 10 25 11
REMARK SMILES IDX 15 12 2 13 1 15 3 16 4 18 9 19 5 20 8 21 6 22 10 23 7 24
REMARK SMILES IDX 11 25 14 26 12 27 13 28
REMARK H PARENT 15 14 3 17
REMARK Flexibility Score: inf
ROOT
ATOM      1  Cl  UNL     1      89.495   6.853  26.575  1.00  0.00    -0.084 Cl
ATOM      2  C   UNL     1      92.561   7.662  23.362  1.00  0.00     0.043 A 
ATOM      3  C   UNL     1      91.540   8.270  25.465  1.00  0.00     0.076 A 
ATOM      4  C   UNL     1      92.485   8.510  24.468  1.00  0.00    -0.025 A 
ATOM      5  C   UNL     1      91.694   6.576  23.256  1.00  0.00    -0.037 A 
ATOM      6  C   UNL     1      90.673   7.183  25.359  1.00  0.00     0.053 A 
ATOM      7  C   UNL     1      90.750   6.335  24.254  1.00  0.00    -0.041 A 
ENDROOT
BRANCH   3   8
ATOM      8  C   UNL     1      91.492   9.200  26.635  1.00  0.00     0.417 C 
ATOM      9  F   UNL     1      92.386  10.223  26.526  1.00  0.00    -0.166 F 
ATOM     10  F   UNL     1      90.274   9.792  26.809  1.00  0.00    -0.166 F 
ATOM     11  F   UNL     1      91.768   8.593  27.825  1.00  0.00    -0.166 F 
ENDBRANCH   3   8
BRANCH   2  12
ATOM     12  N   UNL     1      93.518   7.907  22.348  1.00  0.00    -0.308 N 
ATOM     13  C   UNL     1      93.774   9.111  21.674  1.00  0.00     0.323 C 
ATOM     14  H   UNL     1      94.084   7.105  22.081  1.00  0.00     0.171 HD
ATOM     15  O   UNL     1      93.189  10.172  21.869  1.00  0.00    -0.248 OA
ATOM     16  N   UNL     1      94.815   8.926  20.732  1.00  0.00    -0.308 N 
ATOM     17  H   UNL     1      95.207   7.989  20.681  1.00  0.00     0.171 HD
BRANCH  16  18
ATOM     18  C   UNL     1      95.376   9.860  19.859  1.00  0.00     0.046 A 
ATOM     19  C   UNL     1      94.921   9.936  18.541  1.00  0.00     0.008 A 
ATOM     20  C   UNL     1      96.396  10.713  20.315  1.00  0.00    -0.035 A 
ATOM     21  C   UNL     1      95.505  10.874  17.715  1.00  0.00     0.174 A 
ATOM     22  C   UNL     1      96.972  11.655  19.459  1.00  0.00    -0.014 A 
ATOM     23  O   UNL     1      95.191  11.092  16.408  1.00  0.00    -0.395 OA
ATOM     24  C   UNL     1      96.503  11.711  18.162  1.00  0.00     0.172 A 
ATOM     25  C   UNL     1      96.107  12.154  16.098  1.00  0.00     0.586 C 
ATOM     26  O   UNL     1      96.942  12.560  17.191  1.00  0.00    -0.395 OA
ATOM     27  F   UNL     1      95.396  13.228  15.672  1.00  0.00    -0.125 F 
ATOM     28  F   UNL     1      96.899  11.756  15.072  1.00  0.00    -0.125 F 
ENDBRANCH  16  18
ENDBRANCH   2  12
TORSDOF 3
ENDMDL
MODEL 9
REMARK VINA RESULT:    -6.227      5.329      9.686
REMARK INTER + INTRA:          -7.748
REMARK INTER:                  -7.330
REMARK INTRA:                  -0.418
REMARK UNBOUND:                -0.429
REMARK SMILES O=C(Nc1ccc2c(c1)OC(F)(F)O2)Nc1ccc(Cl)c(C(F)(F)F)c1
REMARK SMILES IDX 20 1 16 2 21 3 26 4 17 5 19 6 18 7 22 8 23 9 24 10 25 11
REMARK SMILES IDX 15 12 2 13 1 15 3 16 4 18 9 19 5 20 8 21 6 22 10 23 7 24
REMARK SMILES IDX 11 25 14 26 12 27 13 28
REMARK H PARENT 15 14 3 17
REMARK Flexibility Score: inf
ROOT
ATOM      1  Cl  UNL     1      88.496   5.961  24.854  1.00  0.00    -0.084 Cl
ATOM      2  C   UNL     1      92.390   8.025  23.873  1.00  0.00     0.043 A 
ATOM      3  C   UNL     1      90.599   7.593  25.436  1.00  0.00     0.076 A 
ATOM      4  C   UNL     1      91.803   8.224  25.123  1.00  0.00    -0.025 A 
ATOM      5  C   UNL     1      91.774   7.194  22.938  1.00  0.00    -0.037 A 
ATOM      6  C   UNL     1      89.983   6.762  24.501  1.00  0.00     0.053 A 
ATOM      7  C   UNL     1      90.571   6.561  23.251  1.00  0.00    -0.041 A 
ENDROOT
BRANCH   3   8
ATOM      8  C   UNL     1      90.004   7.830  26.786  1.00  0.00     0.417 C 
ATOM      9  F   UNL     1      89.629   6.672  27.402  1.00  0.00    -0.166 F 
ATOM     10  F   UNL     1      90.856   8.450  27.655  1.00  0.00    -0.166 F 
ATOM     11  F   UNL     1      88.887   8.612  26.759  1.00  0.00    -0.166 F 
ENDBRANCH   3   8
BRANCH   2  12
ATOM     12  N   UNL     1      93.610   8.667  23.554  1.00  0.00    -0.308 N 
ATOM     13  C   UNL     1      94.856   8.517  24.183  1.00  0.00     0.323 C 
ATOM     14  H   UNL     1      93.570   9.316  22.772  1.00  0.00     0.171 HD
ATOM     15  O   UNL     1      95.085   7.779  25.137  1.00  0.00    -0.248 OA
ATOM     16  N   UNL     1      95.819   9.342  23.553  1.00  0.00    -0.308 N 
ATOM     17  H   UNL     1      95.483   9.901  22.772  1.00  0.00     0.171 HD
BRANCH  16  18
ATOM     18  C   UNL     1      97.172   9.494  23.861  1.00  0.00     0.046 A 
ATOM     19  C   UNL     1      98.129   8.758  23.159  1.00  0.00     0.008 A 
ATOM     20  C   UNL     1      97.558  10.387  24.877  1.00  0.00    -0.035 A 
ATOM     21  C   UNL     1      99.453   8.941  23.499  1.00  0.00     0.174 A 
ATOM     22  C   UNL     1      98.906  10.555  25.202  1.00  0.00    -0.014 A 
ATOM     23  O   UNL     1     100.518   8.314  22.927  1.00  0.00    -0.395 OA
ATOM     24  C   UNL     1      99.832   9.816  24.493  1.00  0.00     0.172 A 
ATOM     25  C   UNL     1     101.593   8.897  23.678  1.00  0.00     0.586 C 
ATOM     26  O   UNL     1     101.182   9.848  24.670  1.00  0.00    -0.395 OA
ATOM     27  F   UNL     1     102.442   9.509  22.815  1.00  0.00    -0.125 F 
ATOM     28  F   UNL     1     102.282   7.902  24.291  1.00  0.00    -0.125 F 
ENDBRANCH  16  18
ENDBRANCH   2  12
TORSDOF 3
ENDMDL
MODEL 10
REMARK VINA RESULT:    -6.224      3.645      9.695
REMARK INTER + INTRA:          -7.744
REMARK INTER:                  -7.257
REMARK INTRA:                  -0.487
REMARK UNBOUND:                -0.429
REMARK SMILES O=C(Nc1ccc2c(c1)OC(F)(F)O2)Nc1ccc(Cl)c(C(F)(F)F)c1
REMARK SMILES IDX 20 1 16 2 21 3 26 4 17 5 19 6 18 7 22 8 23 9 24 10 25 11
REMARK SMILES IDX 15 12 2 13 1 15 3 16 4 18 9 19 5 20 8 21 6 22 10 23 7 24
REMARK SMILES IDX 11 25 14 26 12 27 13 28
REMARK H PARENT 15 14 3 17
REMARK Flexibility Score: inf
ROOT
ATOM      1  Cl  UNL     1      88.659   5.941  25.099  1.00  0.00    -0.084 Cl
ATOM      2  C   UNL     1      92.420   8.021  23.717  1.00  0.00     0.043 A 
ATOM      3  C   UNL     1      90.709   7.710  25.394  1.00  0.00     0.076 A 
ATOM      4  C   UNL     1      91.872   8.346  24.958  1.00  0.00    -0.025 A 
ATOM      5  C   UNL     1      91.806   7.060  22.914  1.00  0.00    -0.037 A 
ATOM      6  C   UNL     1      90.096   6.750  24.591  1.00  0.00     0.053 A 
ATOM      7  C   UNL     1      90.644   6.424  23.350  1.00  0.00    -0.041 A 
ENDROOT
BRANCH   3   8
ATOM      8  C   UNL     1      90.155   8.085  26.731  1.00  0.00     0.417 C 
ATOM      9  F   UNL     1      91.031   8.823  27.471  1.00  0.00    -0.166 F 
ATOM     10  F   UNL     1      89.015   8.833  26.656  1.00  0.00    -0.166 F 
ATOM     11  F   UNL     1      89.829   7.011  27.506  1.00  0.00    -0.166 F 
ENDBRANCH   3   8
BRANCH   2  12
ATOM     12  N   UNL     1      93.599   8.667  23.273  1.00  0.00    -0.308 N 
ATOM     13  C   UNL     1      93.728   9.963  22.749  1.00  0.00     0.323 C 
ATOM     14  H   UNL     1      94.451   8.117  23.345  1.00  0.00     0.171 HD
ATOM     15  O   UNL     1      92.809  10.760  22.593  1.00  0.00    -0.248 OA
ATOM     16  N   UNL     1      95.083  10.221  22.427  1.00  0.00    -0.308 N 
ATOM     17  H   UNL     1      95.736   9.463  22.612  1.00  0.00     0.171 HD
BRANCH  16  18
ATOM     18  C   UNL     1      95.645  11.379  21.887  1.00  0.00     0.046 A 
ATOM     19  C   UNL     1      95.519  11.637  20.520  1.00  0.00     0.008 A 
ATOM     20  C   UNL     1      96.334  12.274  22.724  1.00  0.00    -0.035 A 
ATOM     21  C   UNL     1      96.090  12.793  20.031  1.00  0.00     0.174 A 
ATOM     22  C   UNL     1      96.903  13.439  22.206  1.00  0.00    -0.014 A 
ATOM     23  O   UNL     1      96.068  13.208  18.735  1.00  0.00    -0.395 OA
ATOM     24  C   UNL     1      96.764  13.672  20.852  1.00  0.00     0.172 A 
ATOM     25  C   UNL     1      96.803  14.436  18.846  1.00  0.00     0.586 C 
ATOM     26  O   UNL     1      97.250  14.747  20.173  1.00  0.00    -0.395 OA
ATOM     27  F   UNL     1      96.020  15.451  18.402  1.00  0.00    -0.125 F 
ATOM     28  F   UNL     1      97.885  14.369  18.030  1.00  0.00    -0.125 F 
ENDBRANCH  16  18
ENDBRANCH   2  12
TORSDOF 3
ENDMDL
MODEL 11
REMARK VINA RESULT:    -6.182      1.907      2.725
REMARK INTER + INTRA:          -7.695
REMARK INTER:                  -7.190
REMARK INTRA:                  -0.505
REMARK UNBOUND:                -0.429
REMARK SMILES O=C(Nc1ccc2c(c1)OC(F)(F)O2)Nc1ccc(Cl)c(C(F)(F)F)c1
REMARK SMILES IDX 20 1 16 2 21 3 26 4 17 5 19 6 18 7 22 8 23 9 24 10 25 11
REMARK SMILES IDX 15 12 2 13 1 15 3 16 4 18 9 19 5 20 8 21 6 22 10 23 7 24
REMARK SMILES IDX 11 25 14 26 12 27 13 28
REMARK H PARENT 15 14 3 17
REMARK Flexibility Score: inf
ROOT
ATOM      1  Cl  UNL     1      96.684  13.472  16.093  1.00  0.00    -0.084 Cl
ATOM      2  C   UNL     1      95.383  10.281  19.010  1.00  0.00     0.043 A 
ATOM      3  C   UNL     1      96.536  12.359  18.576  1.00  0.00     0.076 A 
ATOM      4  C   UNL     1      96.127  11.369  19.469  1.00  0.00    -0.025 A 
ATOM      5  C   UNL     1      95.047  10.186  17.661  1.00  0.00    -0.037 A 
ATOM      6  C   UNL     1      96.199  12.264  17.226  1.00  0.00     0.053 A 
ATOM      7  C   UNL     1      95.454  11.177  16.768  1.00  0.00    -0.041 A 
ENDROOT
BRANCH   3   8
ATOM      8  C   UNL     1      97.329  13.510  19.107  1.00  0.00     0.417 C 
ATOM      9  F   UNL     1      97.526  13.431  20.454  1.00  0.00    -0.166 F 
ATOM     10  F   UNL     1      98.575  13.610  18.558  1.00  0.00    -0.166 F 
ATOM     11  F   UNL     1      96.744  14.722  18.889  1.00  0.00    -0.166 F 
ENDBRANCH   3   8
BRANCH   2  12
ATOM     12  N   UNL     1      94.971   9.274  19.916  1.00  0.00    -0.308 N 
ATOM     13  C   UNL     1      94.106   9.402  21.014  1.00  0.00     0.323 C 
ATOM     14  H   UNL     1      95.353   8.348  19.741  1.00  0.00     0.171 HD
ATOM     15  O   UNL     1      93.557  10.440  21.368  1.00  0.00    -0.248 OA
ATOM     16  N   UNL     1      93.956   8.150  21.659  1.00  0.00    -0.308 N 
ATOM     17  H   UNL     1      94.474   7.375  21.252  1.00  0.00     0.171 HD
BRANCH  16  18
ATOM     18  C   UNL     1      93.190   7.835  22.783  1.00  0.00     0.046 A 
ATOM     19  C   UNL     1      91.826   7.572  22.640  1.00  0.00     0.008 A 
ATOM     20  C   UNL     1      93.800   7.788  24.049  1.00  0.00    -0.035 A 
ATOM     21  C   UNL     1      91.110   7.266  23.778  1.00  0.00     0.174 A 
ATOM     22  C   UNL     1      93.054   7.475  25.187  1.00  0.00    -0.014 A 
ATOM     23  O   UNL     1      89.780   6.982  23.832  1.00  0.00    -0.395 OA
ATOM     24  C   UNL     1      91.707   7.218  25.019  1.00  0.00     0.172 A 
ATOM     25  C   UNL     1      89.623   6.755  25.241  1.00  0.00     0.586 C 
ATOM     26  O   UNL     1      90.827   6.898  26.007  1.00  0.00    -0.395 OA
ATOM     27  F   UNL     1      89.136   5.503  25.427  1.00  0.00    -0.125 F 
ATOM     28  F   UNL     1      88.699   7.627  25.719  1.00  0.00    -0.125 F 
ENDBRANCH  16  18
ENDBRANCH   2  12
TORSDOF 3
ENDMDL
MODEL 12
REMARK VINA RESULT:    -6.181     20.491     23.182
REMARK INTER + INTRA:          -7.694
REMARK INTER:                  -7.618
REMARK INTRA:                  -0.076
REMARK UNBOUND:                -0.429
REMARK SMILES O=C(Nc1ccc2c(c1)OC(F)(F)O2)Nc1ccc(Cl)c(C(F)(F)F)c1
REMARK SMILES IDX 20 1 16 2 21 3 26 4 17 5 19 6 18 7 22 8 23 9 24 10 25 11
REMARK SMILES IDX 15 12 2 13 1 15 3 16 4 18 9 19 5 20 8 21 6 22 10 23 7 24
REMARK SMILES IDX 11 25 14 26 12 27 13 28
REMARK H PARENT 15 14 3 17
REMARK Flexibility Score: inf
ROOT
ATOM      1  Cl  UNL     1      89.614 -16.189  21.124  1.00  0.00    -0.084 Cl
ATOM      2  C   UNL     1      92.705 -13.587  23.138  1.00  0.00     0.043 A 
ATOM      3  C   UNL     1      90.395 -14.026  22.585  1.00  0.00     0.076 A 
ATOM      4  C   UNL     1      91.358 -13.230  23.206  1.00  0.00    -0.025 A 
ATOM      5  C   UNL     1      93.088 -14.739  22.453  1.00  0.00    -0.037 A 
ATOM      6  C   UNL     1      90.778 -15.178  21.899  1.00  0.00     0.053 A 
ATOM      7  C   UNL     1      92.125 -15.536  21.833  1.00  0.00    -0.041 A 
ENDROOT
BRANCH   3   8
ATOM      8  C   UNL     1      88.962 -13.611  22.682  1.00  0.00     0.417 C 
ATOM      9  F   UNL     1      88.778 -12.564  23.536  1.00  0.00    -0.166 F 
ATOM     10  F   UNL     1      88.430 -13.211  21.490  1.00  0.00    -0.166 F 
ATOM     11  F   UNL     1      88.137 -14.602  23.128  1.00  0.00    -0.166 F 
ENDBRANCH   3   8
BRANCH   2  12
ATOM     12  N   UNL     1      93.683 -12.778  23.765  1.00  0.00    -0.308 N 
ATOM     13  C   UNL     1      95.029 -12.612  23.402  1.00  0.00     0.323 C 
ATOM     14  H   UNL     1      93.362 -12.258  24.578  1.00  0.00     0.171 HD
ATOM     15  O   UNL     1      95.581 -13.161  22.454  1.00  0.00    -0.248 OA
ATOM     16  N   UNL     1      95.662 -11.713  24.294  1.00  0.00    -0.308 N 
ATOM     17  H   UNL     1      95.077 -11.336  25.036  1.00  0.00     0.171 HD
BRANCH  16  18
ATOM     18  C   UNL     1      96.987 -11.273  24.293  1.00  0.00     0.046 A 
ATOM     19  C   UNL     1      97.273  -9.936  24.009  1.00  0.00     0.008 A 
ATOM     20  C   UNL     1      98.022 -12.182  24.575  1.00  0.00    -0.035 A 
ATOM     21  C   UNL     1      98.597  -9.548  24.020  1.00  0.00     0.174 A 
ATOM     22  C   UNL     1      99.355 -11.765  24.580  1.00  0.00    -0.014 A 
ATOM     23  O   UNL     1      99.062  -8.293  23.770  1.00  0.00    -0.395 OA
ATOM     24  C   UNL     1      99.610 -10.438  24.298  1.00  0.00     0.172 A 
ATOM     25  C   UNL     1     100.473  -8.508  23.922  1.00  0.00     0.586 C 
ATOM     26  O   UNL     1     100.840  -9.854  24.257  1.00  0.00    -0.395 OA
ATOM     27  F   UNL     1     100.935  -7.678  24.891  1.00  0.00    -0.125 F 
ATOM     28  F   UNL     1     101.091  -8.166  22.764  1.00  0.00    -0.125 F 
ENDBRANCH  16  18
ENDBRANCH   2  12
TORSDOF 3
ENDMDL
MODEL 13
REMARK VINA RESULT:    -6.100      6.995      9.731
REMARK INTER + INTRA:          -7.599
REMARK INTER:                  -7.034
REMARK INTRA:                  -0.565
REMARK UNBOUND:                -0.429
REMARK SMILES O=C(Nc1ccc2c(c1)OC(F)(F)O2)Nc1ccc(Cl)c(C(F)(F)F)c1
REMARK SMILES IDX 20 1 16 2 21 3 26 4 17 5 19 6 18 7 22 8 23 9 24 10 25 11
REMARK SMILES IDX 15 12 2 13 1 15 3 16 4 18 9 19 5 20 8 21 6 22 10 23 7 24
REMARK SMILES IDX 11 25 14 26 12 27 13 28
REMARK H PARENT 15 14 3 17
REMARK Flexibility Score: inf
ROOT
ATOM      1  Cl  UNL     1      92.816   6.610  24.485  1.00  0.00    -0.084 Cl
ATOM      2  C   UNL     1      89.929   9.573  26.293  1.00  0.00     0.043 A 
ATOM      3  C   UNL     1      90.317   7.545  25.040  1.00  0.00     0.076 A 
ATOM      4  C   UNL     1      89.434   8.465  25.604  1.00  0.00    -0.025 A 
ATOM      5  C   UNL     1      91.305   9.758  26.419  1.00  0.00    -0.037 A 
ATOM      6  C   UNL     1      91.694   7.730  25.166  1.00  0.00     0.053 A 
ATOM      7  C   UNL     1      92.189   8.837  25.856  1.00  0.00    -0.041 A 
ENDROOT
BRANCH   3   8
ATOM      8  C   UNL     1      89.748   6.370  24.311  1.00  0.00     0.417 C 
ATOM      9  F   UNL     1      88.384   6.375  24.297  1.00  0.00    -0.166 F 
ATOM     10  F   UNL     1      90.129   6.305  23.002  1.00  0.00    -0.166 F 
ATOM     11  F   UNL     1      90.107   5.169  24.849  1.00  0.00    -0.166 F 
ENDBRANCH   3   8
BRANCH   2  12
ATOM     12  N   UNL     1      89.033  10.509  26.863  1.00  0.00    -0.308 N 
ATOM     13  C   UNL     1      88.683  11.778  26.375  1.00  0.00     0.323 C 
ATOM     14  H   UNL     1      88.595  10.218  27.734  1.00  0.00     0.171 HD
ATOM     15  O   UNL     1      89.114  12.285  25.345  1.00  0.00    -0.248 OA
ATOM     16  N   UNL     1      87.753  12.392  27.249  1.00  0.00    -0.308 N 
ATOM     17  H   UNL     1      87.487  11.850  28.067  1.00  0.00     0.171 HD
BRANCH  16  18
ATOM     18  C   UNL     1      87.151  13.646  27.139  1.00  0.00     0.046 A 
ATOM     19  C   UNL     1      86.065  13.820  26.277  1.00  0.00     0.008 A 
ATOM     20  C   UNL     1      87.645  14.724  27.894  1.00  0.00    -0.035 A 
ATOM     21  C   UNL     1      85.503  15.077  26.200  1.00  0.00     0.174 A 
ATOM     22  C   UNL     1      87.058  15.988  27.800  1.00  0.00    -0.014 A 
ATOM     23  O   UNL     1      84.445  15.432  25.421  1.00  0.00    -0.395 OA
ATOM     24  C   UNL     1      85.985  16.133  26.942  1.00  0.00     0.172 A 
ATOM     25  C   UNL     1      84.329  16.822  25.762  1.00  0.00     0.586 C 
ATOM     26  O   UNL     1      85.291  17.283  26.721  1.00  0.00    -0.395 OA
ATOM     27  F   UNL     1      83.085  17.045  26.253  1.00  0.00    -0.125 F 
ATOM     28  F   UNL     1      84.459  17.557  24.629  1.00  0.00    -0.125 F 
ENDBRANCH  16  18
ENDBRANCH   2  12
TORSDOF 3
ENDMDL
MODEL 14
REMARK VINA RESULT:    -6.076     20.421     21.877
REMARK INTER + INTRA:          -7.571
REMARK INTER:                  -7.053
REMARK INTRA:                  -0.518
REMARK UNBOUND:                -0.429
REMARK SMILES O=C(Nc1ccc2c(c1)OC(F)(F)O2)Nc1ccc(Cl)c(C(F)(F)F)c1
REMARK SMILES IDX 20 1 16 2 21 3 26 4 17 5 19 6 18 7 22 8 23 9 24 10 25 11
REMARK SMILES IDX 15 12 2 13 1 15 3 16 4 18 9 19 5 20 8 21 6 22 10 23 7 24
REMARK SMILES IDX 11 25 14 26 12 27 13 28
REMARK H PARENT 15 14 3 17
REMARK Flexibility Score: inf
ROOT
ATOM      1  Cl  UNL     1     101.753  -8.389  23.333  1.00  0.00    -0.084 Cl
ATOM      2  C   UNL     1      97.989 -10.769  24.072  1.00  0.00     0.043 A 
ATOM      3  C   UNL     1     100.167 -10.585  23.044  1.00  0.00     0.076 A 
ATOM      4  C   UNL     1      99.000 -11.313  23.280  1.00  0.00    -0.025 A 
ATOM      5  C   UNL     1      98.144  -9.500  24.628  1.00  0.00    -0.037 A 
ATOM      6  C   UNL     1     100.323  -9.316  23.600  1.00  0.00     0.053 A 
ATOM      7  C   UNL     1      99.311  -8.773  24.393  1.00  0.00    -0.041 A 
ENDROOT
BRANCH   3   8
ATOM      8  C   UNL     1     101.228 -11.203  22.191  1.00  0.00     0.417 C 
ATOM      9  F   UNL     1     100.892 -12.453  21.763  1.00  0.00    -0.166 F 
ATOM     10  F   UNL     1     101.503 -10.488  21.061  1.00  0.00    -0.166 F 
ATOM     11  F   UNL     1     102.426 -11.341  22.828  1.00  0.00    -0.166 F 
ENDBRANCH   3   8
BRANCH   2  12
ATOM     12  N   UNL     1      96.804 -11.506  24.310  1.00  0.00    -0.308 N 
ATOM     13  C   UNL     1      95.812 -11.870  23.384  1.00  0.00     0.323 C 
ATOM     14  H   UNL     1      96.661 -11.803  25.272  1.00  0.00     0.171 HD
ATOM     15  O   UNL     1      95.824 -11.597  22.189  1.00  0.00    -0.248 OA
ATOM     16  N   UNL     1      94.792 -12.606  24.035  1.00  0.00    -0.308 N 
ATOM     17  H   UNL     1      94.918 -12.755  25.033  1.00  0.00     0.171 HD
BRANCH  16  18
ATOM     18  C   UNL     1      93.630 -13.154  23.488  1.00  0.00     0.046 A 
ATOM     19  C   UNL     1      92.412 -12.487  23.639  1.00  0.00     0.008 A 
ATOM     20  C   UNL     1      93.698 -14.373  22.791  1.00  0.00    -0.035 A 
ATOM     21  C   UNL     1      91.291 -13.067  23.082  1.00  0.00     0.174 A 
ATOM     22  C   UNL     1      92.548 -14.940  22.236  1.00  0.00    -0.014 A 
ATOM     23  O   UNL     1      90.027 -12.565  23.127  1.00  0.00    -0.395 OA
ATOM     24  C   UNL     1      91.357 -14.261  22.398  1.00  0.00     0.172 A 
ATOM     25  C   UNL     1      89.321 -13.580  22.399  1.00  0.00     0.586 C 
ATOM     26  O   UNL     1      90.142 -14.659  21.929  1.00  0.00    -0.395 OA
ATOM     27  F   UNL     1      88.710 -13.004  21.333  1.00  0.00    -0.125 F 
ATOM     28  F   UNL     1      88.351 -14.091  23.198  1.00  0.00    -0.125 F 
ENDBRANCH  16  18
ENDBRANCH   2  12
TORSDOF 3
ENDMDL
MODEL 15
REMARK VINA RESULT:    -6.074      5.104      5.910
REMARK INTER + INTRA:          -7.569
REMARK INTER:                  -7.257
REMARK INTRA:                  -0.312
REMARK UNBOUND:                -0.429
REMARK SMILES O=C(Nc1ccc2c(c1)OC(F)(F)O2)Nc1ccc(Cl)c(C(F)(F)F)c1
REMARK SMILES IDX 20 1 16 2 21 3 26 4 17 5 19 6 18 7 22 8 23 9 24 10 25 11
REMARK SMILES IDX 15 12 2 13 1 15 3 16 4 18 9 19 5 20 8 21 6 22 10 23 7 24
REMARK SMILES IDX 11 25 14 26 12 27 13 28
REMARK H PARENT 15 14 3 17
REMARK Flexibility Score: inf
ROOT
ATOM      1  Cl  UNL     1     102.268   8.398  24.074  1.00  0.00    -0.084 Cl
ATOM      2  C   UNL     1      97.835   8.948  23.420  1.00  0.00     0.043 A 
ATOM      3  C   UNL     1      99.733   8.935  24.915  1.00  0.00     0.076 A 
ATOM      4  C   UNL     1      98.364   9.104  24.701  1.00  0.00    -0.025 A 
ATOM      5  C   UNL     1      98.673   8.624  22.354  1.00  0.00    -0.037 A 
ATOM      6  C   UNL     1     100.571   8.611  23.848  1.00  0.00     0.053 A 
ATOM      7  C   UNL     1     100.041   8.456  22.566  1.00  0.00    -0.041 A 
ENDROOT
BRANCH   3   8
ATOM      8  C   UNL     1     100.262   9.114  26.301  1.00  0.00     0.417 C 
ATOM      9  F   UNL     1      99.271   9.319  27.216  1.00  0.00    -0.166 F 
ATOM     10  F   UNL     1     100.966   8.037  26.757  1.00  0.00    -0.166 F 
ATOM     11  F   UNL     1     101.108  10.176  26.429  1.00  0.00    -0.166 F 
ENDBRANCH   3   8
BRANCH   2  12
ATOM     12  N   UNL     1      96.446   9.117  23.203  1.00  0.00    -0.308 N 
ATOM     13  C   UNL     1      95.384   8.557  23.931  1.00  0.00     0.323 C 
ATOM     14  H   UNL     1      96.198   9.719  22.422  1.00  0.00     0.171 HD
ATOM     15  O   UNL     1      95.501   7.812  24.898  1.00  0.00    -0.248 OA
ATOM     16  N   UNL     1      94.148   8.981  23.384  1.00  0.00    -0.308 N 
ATOM     17  H   UNL     1      94.206   9.600  22.579  1.00  0.00     0.171 HD
BRANCH  16  18
ATOM     18  C   UNL     1      92.855   8.661  23.802  1.00  0.00     0.046 A 
ATOM     19  C   UNL     1      92.394   7.348  23.682  1.00  0.00     0.008 A 
ATOM     20  C   UNL     1      92.029   9.664  24.339  1.00  0.00    -0.035 A 
ATOM     21  C   UNL     1      91.110   7.079  24.109  1.00  0.00     0.174 A 
ATOM     22  C   UNL     1      90.733   9.367  24.764  1.00  0.00    -0.014 A 
ATOM     23  O   UNL     1      90.494   5.866  24.071  1.00  0.00    -0.395 OA
ATOM     24  C   UNL     1      90.301   8.062  24.636  1.00  0.00     0.172 A 
ATOM     25  C   UNL     1      89.217   6.208  24.630  1.00  0.00     0.586 C 
ATOM     26  O   UNL     1      89.075   7.589  24.994  1.00  0.00    -0.395 OA
ATOM     27  F   UNL     1      89.008   5.444  25.732  1.00  0.00    -0.125 F 
ATOM     28  F   UNL     1      88.252   5.897  23.729  1.00  0.00    -0.125 F 
ENDBRANCH  16  18
ENDBRANCH   2  12
TORSDOF 3
ENDMDL
MODEL 16
REMARK VINA RESULT:    -6.050      5.723      6.735
REMARK INTER + INTRA:          -7.540
REMARK INTER:                  -7.053
REMARK INTRA:                  -0.487
REMARK UNBOUND:                -0.429
REMARK SMILES O=C(Nc1ccc2c(c1)OC(F)(F)O2)Nc1ccc(Cl)c(C(F)(F)F)c1
REMARK SMILES IDX 20 1 16 2 21 3 26 4 17 5 19 6 18 7 22 8 23 9 24 10 25 11
REMARK SMILES IDX 15 12 2 13 1 15 3 16 4 18 9 19 5 20 8 21 6 22 10 23 7 24
REMARK SMILES IDX 11 25 14 26 12 27 13 28
REMARK H PARENT 15 14 3 17
REMARK Flexibility Score: inf
ROOT
ATOM      1  Cl  UNL     1     102.564   9.385  25.216  1.00  0.00    -0.084 Cl
ATOM      2  C   UNL     1      98.111   9.467  25.955  1.00  0.00     0.043 A 
ATOM      3  C   UNL     1     100.218   8.290  26.065  1.00  0.00     0.076 A 
ATOM      4  C   UNL     1      98.842   8.327  26.291  1.00  0.00    -0.025 A 
ATOM      5  C   UNL     1      98.756  10.569  25.396  1.00  0.00    -0.037 A 
ATOM      6  C   UNL     1     100.863   9.392  25.506  1.00  0.00     0.053 A 
ATOM      7  C   UNL     1     100.132  10.533  25.171  1.00  0.00    -0.041 A 
ENDROOT
BRANCH   3   8
ATOM      8  C   UNL     1     100.966   7.051  26.441  1.00  0.00     0.417 C 
ATOM      9  F   UNL     1     101.535   6.439  25.364  1.00  0.00    -0.166 F 
ATOM     10  F   UNL     1     101.987   7.278  27.318  1.00  0.00    -0.166 F 
ATOM     11  F   UNL     1     100.186   6.104  27.035  1.00  0.00    -0.166 F 
ENDBRANCH   3   8
BRANCH   2  12
ATOM     12  N   UNL     1      96.714   9.504  26.182  1.00  0.00    -0.308 N 
ATOM     13  C   UNL     1      95.696   8.941  25.396  1.00  0.00     0.323 C 
ATOM     14  H   UNL     1      96.422  10.002  27.019  1.00  0.00     0.171 HD
ATOM     15  O   UNL     1      95.868   8.310  24.358  1.00  0.00    -0.248 OA
ATOM     16  N   UNL     1      94.433   9.208  25.978  1.00  0.00    -0.308 N 
ATOM     17  H   UNL     1      94.446   9.745  26.841  1.00  0.00     0.171 HD
BRANCH  16  18
ATOM     18  C   UNL     1      93.168   8.831  25.524  1.00  0.00     0.046 A 
ATOM     19  C   UNL     1      92.839   7.477  25.435  1.00  0.00     0.008 A 
ATOM     20  C   UNL     1      92.238   9.820  25.158  1.00  0.00    -0.035 A 
ATOM     21  C   UNL     1      91.577   7.153  24.981  1.00  0.00     0.174 A 
ATOM     22  C   UNL     1      90.966   9.467  24.701  1.00  0.00    -0.014 A 
ATOM     23  O   UNL     1      91.082   5.894  24.830  1.00  0.00    -0.395 OA
ATOM     24  C   UNL     1      90.665   8.121  24.624  1.00  0.00     0.172 A 
ATOM     25  C   UNL     1      89.766   6.192  24.340  1.00  0.00     0.586 C 
ATOM     26  O   UNL     1      89.483   7.592  24.204  1.00  0.00    -0.395 OA
ATOM     27  F   UNL     1      88.856   5.644  25.183  1.00  0.00    -0.125 F 
ATOM     28  F   UNL     1      89.611   5.599  23.130  1.00  0.00    -0.125 F 
ENDBRANCH  16  18
ENDBRANCH   2  12
TORSDOF 3
ENDMDL
MODEL 17
REMARK VINA RESULT:    -6.014      5.039      9.204
REMARK INTER + INTRA:          -7.497
REMARK INTER:                  -7.001
REMARK INTRA:                  -0.496
REMARK UNBOUND:                -0.429
REMARK SMILES O=C(Nc1ccc2c(c1)OC(F)(F)O2)Nc1ccc(Cl)c(C(F)(F)F)c1
REMARK SMILES IDX 20 1 16 2 21 3 26 4 17 5 19 6 18 7 22 8 23 9 24 10 25 11
REMARK SMILES IDX 15 12 2 13 1 15 3 16 4 18 9 19 5 20 8 21 6 22 10 23 7 24
REMARK SMILES IDX 11 25 14 26 12 27 13 28
REMARK H PARENT 15 14 3 17
REMARK Flexibility Score: inf
ROOT
ATOM      1  Cl  UNL     1      93.384  10.996  25.358  1.00  0.00    -0.084 Cl
ATOM      2  C   UNL     1      94.338   9.436  21.231  1.00  0.00     0.043 A 
ATOM      3  C   UNL     1      93.435   9.062  23.439  1.00  0.00     0.076 A 
ATOM      4  C   UNL     1      93.733   8.591  22.161  1.00  0.00    -0.025 A 
ATOM      5  C   UNL     1      94.644  10.751  21.579  1.00  0.00    -0.037 A 
ATOM      6  C   UNL     1      93.741  10.377  23.788  1.00  0.00     0.053 A 
ATOM      7  C   UNL     1      94.346  11.223  22.857  1.00  0.00    -0.041 A 
ENDROOT
BRANCH   3   8
ATOM      8  C   UNL     1      92.784   8.126  24.407  1.00  0.00     0.417 C 
ATOM      9  F   UNL     1      92.583   6.886  23.877  1.00  0.00    -0.166 F 
ATOM     10  F   UNL     1      93.512   7.927  25.544  1.00  0.00    -0.166 F 
ATOM     11  F   UNL     1      91.560   8.549  24.834  1.00  0.00    -0.166 F 
ENDBRANCH   3   8
BRANCH   2  12
ATOM     12  N   UNL     1      94.643   8.958  19.934  1.00  0.00    -0.308 N 
ATOM     13  C   UNL     1      93.752   8.497  18.951  1.00  0.00     0.323 C 
ATOM     14  H   UNL     1      95.631   8.951  19.693  1.00  0.00     0.171 HD
ATOM     15  O   UNL     1      92.533   8.437  19.071  1.00  0.00    -0.248 OA
ATOM     16  N   UNL     1      94.469   8.110  17.793  1.00  0.00    -0.308 N 
ATOM     17  H   UNL     1      95.479   8.215  17.838  1.00  0.00     0.171 HD
BRANCH  16  18
ATOM     18  C   UNL     1      93.972   7.599  16.592  1.00  0.00     0.046 A 
ATOM     19  C   UNL     1      93.799   8.449  15.498  1.00  0.00     0.008 A 
ATOM     20  C   UNL     1      93.650   6.234  16.497  1.00  0.00    -0.035 A 
ATOM     21  C   UNL     1      93.306   7.900  14.332  1.00  0.00     0.174 A 
ATOM     22  C   UNL     1      93.153   5.701  15.305  1.00  0.00    -0.014 A 
ATOM     23  O   UNL     1      93.073   8.570  13.170  1.00  0.00    -0.395 OA
ATOM     24  C   UNL     1      92.992   6.562  14.238  1.00  0.00     0.172 A 
ATOM     25  C   UNL     1      92.580   7.500  12.351  1.00  0.00     0.586 C 
ATOM     26  O   UNL     1      92.522   6.225  13.005  1.00  0.00    -0.395 OA
ATOM     27  F   UNL     1      93.374   7.391  11.256  1.00  0.00    -0.125 F 
ATOM     28  F   UNL     1      91.335   7.823  11.920  1.00  0.00    -0.125 F 
ENDBRANCH  16  18
ENDBRANCH   2  12
TORSDOF 3
ENDMDL
MODEL 18
REMARK VINA RESULT:    -5.968     20.277     23.148
REMARK INTER + INTRA:          -7.444
REMARK INTER:                  -6.896
REMARK INTRA:                  -0.548
REMARK UNBOUND:                -0.429
REMARK SMILES O=C(Nc1ccc2c(c1)OC(F)(F)O2)Nc1ccc(Cl)c(C(F)(F)F)c1
REMARK SMILES IDX 20 1 16 2 21 3 26 4 17 5 19 6 18 7 22 8 23 9 24 10 25 11
REMARK SMILES IDX 15 12 2 13 1 15 3 16 4 18 9 19 5 20 8 21 6 22 10 23 7 24
REMARK SMILES IDX 11 25 14 26 12 27 13 28
REMARK H PARENT 15 14 3 17
REMARK Flexibility Score: inf
ROOT
ATOM      1  Cl  UNL     1      90.143 -16.466  24.934  1.00  0.00    -0.084 Cl
ATOM      2  C   UNL     1      93.310 -13.583  23.506  1.00  0.00     0.043 A 
ATOM      3  C   UNL     1      91.150 -13.969  24.516  1.00  0.00     0.076 A 
ATOM      4  C   UNL     1      92.135 -13.087  24.073  1.00  0.00    -0.025 A 
ATOM      5  C   UNL     1      93.499 -14.959  23.384  1.00  0.00    -0.037 A 
ATOM      6  C   UNL     1      91.338 -15.345  24.394  1.00  0.00     0.053 A 
ATOM      7  C   UNL     1      92.514 -15.841  23.828  1.00  0.00    -0.041 A 
ENDROOT
BRANCH   3   8
ATOM      8  C   UNL     1      89.906 -13.399  25.119  1.00  0.00     0.417 C 
ATOM      9  F   UNL     1      88.777 -13.817  24.479  1.00  0.00    -0.166 F 
ATOM     10  F   UNL     1      89.733 -13.738  26.430  1.00  0.00    -0.166 F 
ATOM     11  F   UNL     1      89.864 -12.036  25.093  1.00  0.00    -0.166 F 
ENDBRANCH   3   8
BRANCH   2  12
ATOM     12  N   UNL     1      94.309 -12.688  23.054  1.00  0.00    -0.308 N 
ATOM     13  C   UNL     1      95.533 -12.376  23.669  1.00  0.00     0.323 C 
ATOM     14  H   UNL     1      94.108 -12.217  22.176  1.00  0.00     0.171 HD
ATOM     15  O   UNL     1      95.935 -12.849  24.728  1.00  0.00    -0.248 OA
ATOM     16  N   UNL     1      96.241 -11.433  22.886  1.00  0.00    -0.308 N 
ATOM     17  H   UNL     1      95.781 -11.130  22.031  1.00  0.00     0.171 HD
BRANCH  16  18
ATOM     18  C   UNL     1      97.489 -10.859  23.132  1.00  0.00     0.046 A 
ATOM     19  C   UNL     1      97.597  -9.793  24.028  1.00  0.00     0.008 A 
ATOM     20  C   UNL     1      98.627 -11.359  22.474  1.00  0.00    -0.035 A 
ATOM     21  C   UNL     1      98.851  -9.258  24.239  1.00  0.00     0.174 A 
ATOM     22  C   UNL     1      99.886 -10.801  22.704  1.00  0.00    -0.014 A 
ATOM     23  O   UNL     1      99.148  -8.223  25.072  1.00  0.00    -0.395 OA
ATOM     24  C   UNL     1      99.966  -9.749  23.595  1.00  0.00     0.172 A 
ATOM     25  C   UNL     1     100.566  -8.129  24.870  1.00  0.00     0.586 C 
ATOM     26  O   UNL     1     101.102  -9.083  23.943  1.00  0.00    -0.395 OA
ATOM     27  F   UNL     1     101.186  -8.290  26.066  1.00  0.00    -0.125 F 
ATOM     28  F   UNL     1     100.857  -6.881  24.424  1.00  0.00    -0.125 F 
ENDBRANCH  16  18
ENDBRANCH   2  12
TORSDOF 3
ENDMDL
MODEL 19
REMARK VINA RESULT:    -5.860      6.327      9.733
REMARK INTER + INTRA:          -7.316
REMARK INTER:                  -6.943
REMARK INTRA:                  -0.374
REMARK UNBOUND:                -0.429
REMARK SMILES O=C(Nc1ccc2c(c1)OC(F)(F)O2)Nc1ccc(Cl)c(C(F)(F)F)c1
REMARK SMILES IDX 20 1 16 2 21 3 26 4 17 5 19 6 18 7 22 8 23 9 24 10 25 11
REMARK SMILES IDX 15 12 2 13 1 15 3 16 4 18 9 19 5 20 8 21 6 22 10 23 7 24
REMARK SMILES IDX 11 25 14 26 12 27 13 28
REMARK H PARENT 15 14 3 17
REMARK Flexibility Score: inf
ROOT
ATOM      1  Cl  UNL     1      89.666   7.558  26.097  1.00  0.00    -0.084 Cl
ATOM      2  C   UNL     1      93.901   8.661  24.988  1.00  0.00     0.043 A 
ATOM      3  C   UNL     1      91.799   7.623  24.404  1.00  0.00     0.076 A 
ATOM      4  C   UNL     1      93.109   7.970  24.071  1.00  0.00    -0.025 A 
ATOM      5  C   UNL     1      93.383   9.005  26.236  1.00  0.00    -0.037 A 
ATOM      6  C   UNL     1      91.282   7.967  25.652  1.00  0.00     0.053 A 
ATOM      7  C   UNL     1      92.074   8.660  26.569  1.00  0.00    -0.041 A 
ENDROOT
BRANCH   3   8
ATOM      8  C   UNL     1      90.982   6.885  23.393  1.00  0.00     0.417 C 
ATOM      9  F   UNL     1      89.808   7.517  23.109  1.00  0.00    -0.166 F 
ATOM     10  F   UNL     1      91.615   6.727  22.193  1.00  0.00    -0.166 F 
ATOM     11  F   UNL     1      90.638   5.625  23.785  1.00  0.00    -0.166 F 
ENDBRANCH   3   8
BRANCH   2  12
ATOM     12  N   UNL     1      95.231   9.011  24.652  1.00  0.00    -0.308 N 
ATOM     13  C   UNL     1      96.420   8.569  25.254  1.00  0.00     0.323 C 
ATOM     14  H   UNL     1      95.327   9.665  23.879  1.00  0.00     0.171 HD
ATOM     15  O   UNL     1      96.489   7.784  26.194  1.00  0.00    -0.248 OA
ATOM     16  N   UNL     1      97.535   9.162  24.613  1.00  0.00    -0.308 N 
ATOM     17  H   UNL     1      97.323   9.795  23.846  1.00  0.00     0.171 HD
BRANCH  16  18
ATOM     18  C   UNL     1      98.891   8.994  24.896  1.00  0.00     0.046 A 
ATOM     19  C   UNL     1      99.740   8.461  23.923  1.00  0.00     0.008 A 
ATOM     20  C   UNL     1      99.390   9.362  26.158  1.00  0.00    -0.035 A 
ATOM     21  C   UNL     1     101.073   8.314  24.247  1.00  0.00     0.174 A 
ATOM     22  C   UNL     1     100.744   9.204  26.462  1.00  0.00    -0.014 A 
ATOM     23  O   UNL     1     102.042   7.815  23.432  1.00  0.00    -0.395 OA
ATOM     24  C   UNL     1     101.562   8.676  25.483  1.00  0.00     0.172 A 
ATOM     25  C   UNL     1     103.182   7.909  24.300  1.00  0.00     0.586 C 
ATOM     26  O   UNL     1     102.900   8.450  25.599  1.00  0.00    -0.395 OA
ATOM     27  F   UNL     1     104.121   8.683  23.701  1.00  0.00    -0.125 F 
ATOM     28  F   UNL     1     103.712   6.669  24.453  1.00  0.00    -0.125 F 
ENDBRANCH  16  18
ENDBRANCH   2  12
TORSDOF 3
ENDMDL
MODEL 20
REMARK VINA RESULT:    -5.858      5.267      9.448
REMARK INTER + INTRA:          -7.315
REMARK INTER:                  -6.886
REMARK INTRA:                  -0.429
REMARK UNBOUND:                -0.429
REMARK SMILES O=C(Nc1ccc2c(c1)OC(F)(F)O2)Nc1ccc(Cl)c(C(F)(F)F)c1
REMARK SMILES IDX 20 1 16 2 21 3 26 4 17 5 19 6 18 7 22 8 23 9 24 10 25 11
REMARK SMILES IDX 15 12 2 13 1 15 3 16 4 18 9 19 5 20 8 21 6 22 10 23 7 24
REMARK SMILES IDX 11 25 14 26 12 27 13 28
REMARK H PARENT 15 14 3 17
REMARK Flexibility Score: inf
ROOT
ATOM      1  Cl  UNL     1      89.184   8.230  27.187  1.00  0.00    -0.084 Cl
ATOM      2  C   UNL     1      92.863   9.089  24.716  1.00  0.00     0.043 A 
ATOM      3  C   UNL     1      90.875   7.771  25.102  1.00  0.00     0.076 A 
ATOM      4  C   UNL     1      92.014   8.046  24.344  1.00  0.00    -0.025 A 
ATOM      5  C   UNL     1      92.572   9.856  25.843  1.00  0.00    -0.037 A 
ATOM      6  C   UNL     1      90.585   8.538  26.229  1.00  0.00     0.053 A 
ATOM      7  C   UNL     1      91.433   9.582  26.600  1.00  0.00    -0.041 A 
ENDROOT
BRANCH   3   8
ATOM      8  C   UNL     1      89.990   6.646  24.669  1.00  0.00     0.417 C 
ATOM      9  F   UNL     1      88.783   7.081  24.207  1.00  0.00    -0.166 F 
ATOM     10  F   UNL     1      90.520   5.894  23.661  1.00  0.00    -0.166 F 
ATOM     11  F   UNL     1      89.707   5.761  25.667  1.00  0.00    -0.166 F 
ENDBRANCH   3   8
BRANCH   2  12
ATOM     12  N   UNL     1      94.020   9.367  23.949  1.00  0.00    -0.308 N 
ATOM     13  C   UNL     1      95.276   8.745  24.024  1.00  0.00     0.323 C 
ATOM     14  H   UNL     1      93.919  10.110  23.263  1.00  0.00     0.171 HD
ATOM     15  O   UNL     1      95.572   7.834  24.792  1.00  0.00    -0.248 OA
ATOM     16  N   UNL     1      96.159   9.322  23.079  1.00  0.00    -0.308 N 
ATOM     17  H   UNL     1      95.773  10.071  22.510  1.00  0.00     0.171 HD
BRANCH  16  18
ATOM     18  C   UNL     1      97.493   9.002  22.824  1.00  0.00     0.046 A 
ATOM     19  C   UNL     1      98.435   9.092  23.852  1.00  0.00     0.008 A 
ATOM     20  C   UNL     1      97.876   8.593  21.535  1.00  0.00    -0.035 A 
ATOM     21  C   UNL     1      99.742   8.765  23.553  1.00  0.00     0.174 A 
ATOM     22  C   UNL     1      99.206   8.267  21.257  1.00  0.00    -0.014 A 
ATOM     23  O   UNL     1     100.790   8.792  24.421  1.00  0.00    -0.395 OA
ATOM     24  C   UNL     1     100.117   8.363  22.290  1.00  0.00     0.172 A 
ATOM     25  C   UNL     1     101.852   8.365  23.555  1.00  0.00     0.586 C 
ATOM     26  O   UNL     1     101.448   8.088  22.206  1.00  0.00    -0.395 OA
ATOM     27  F   UNL     1     102.414   7.247  24.078  1.00  0.00    -0.125 F 
ATOM     28  F   UNL     1     102.806   9.329  23.532  1.00  0.00    -0.125 F 
ENDBRANCH  16  18
ENDBRANCH   2  12
TORSDOF 3
ENDMDL
