REMARK SMILES O=C(Nc1ccc2c(c1)OC(F)(F)O2)Nc1ccc(Cl)c(C(F)(F)F)c1
REMARK SMILES IDX 20 1 16 2 21 3 26 4 17 5 19 6 18 7 22 8 23 9 24 10 25 11
REMARK SMILES IDX 15 12 2 13 1 15 3 16 4 18 9 19 5 20 8 21 6 22 10 23 7 24
REMARK SMILES IDX 11 25 14 26 12 27 13 28
REMARK H PARENT 15 14 3 17
REMARK Flexibility Score: inf
ROOT
ATOM      1  Cl  UNL     1     102.212   1.821  15.354  1.00  0.00    -0.084 Cl
ATOM      2  C   UNL     1     100.677   4.073  18.953  1.00  0.00     0.043 A 
ATOM      3  C   UNL     1     100.321   3.232  16.717  1.00  0.00     0.076 A 
ATOM      4  C   UNL     1      99.856   3.925  17.835  1.00  0.00    -0.025 A 
ATOM      5  C   UNL     1     101.960   3.529  18.953  1.00  0.00    -0.037 A 
ATOM      6  C   UNL     1     101.604   2.687  16.717  1.00  0.00     0.053 A 
ATOM      7  C   UNL     1     102.425   2.835  17.836  1.00  0.00    -0.041 A 
ENDROOT
BRANCH   3   8
ATOM      8  C   UNL     1      99.410   3.092  15.539  1.00  0.00     0.417 C 
ATOM      9  F   UNL     1      98.141   3.512  15.808  1.00  0.00    -0.166 F 
ATOM     10  F   UNL     1      99.814   3.813  14.452  1.00  0.00    -0.166 F 
ATOM     11  F   UNL     1      99.289   1.809  15.094  1.00  0.00    -0.166 F 
ENDBRANCH   3   8
BRANCH   2  12
ATOM     12  N   UNL     1     100.206   4.778  20.087  1.00  0.00    -0.308 N 
ATOM     13  C   UNL     1     100.103   6.168  20.259  1.00  0.00     0.323 C 
ATOM     14  H   UNL     1      99.908   4.198  20.868  1.00  0.00     0.171 HD
ATOM     15  O   UNL     1     100.416   7.011  19.425  1.00  0.00    -0.248 OA
ATOM     16  N   UNL     1      99.582   6.458  21.544  1.00  0.00    -0.308 N 
ATOM     17  H   UNL     1      99.369   5.654  22.129  1.00  0.00     0.171 HD
BRANCH  16  18
ATOM     18  C   UNL     1      99.322   7.704  22.117  1.00  0.00     0.046 A 
ATOM     19  C   UNL     1      98.084   8.317  21.909  1.00  0.00     0.008 A 
ATOM     20  C   UNL     1     100.310   8.331  22.896  1.00  0.00    -0.035 A 
ATOM     21  C   UNL     1      97.872   9.547  22.495  1.00  0.00     0.174 A 
ATOM     22  C   UNL     1     100.071   9.578  23.479  1.00  0.00    -0.014 A 
ATOM     23  O   UNL     1      96.735  10.289  22.404  1.00  0.00    -0.395 OA
ATOM     24  C   UNL     1      98.839  10.161  23.260  1.00  0.00     0.172 A 
ATOM     25  C   UNL     1      97.107  11.428  23.195  1.00  0.00     0.586 C 
ATOM     26  O   UNL     1      98.431  11.366  23.745  1.00  0.00    -0.395 OA
ATOM     27  F   UNL     1      96.219  11.558  24.213  1.00  0.00    -0.125 F 
ATOM     28  F   UNL     1      97.009  12.541  22.425  1.00  0.00    -0.125 F 
ENDBRANCH  16  18
ENDBRANCH   2  12
TORSDOF 3
