MODEL 1
REMARK VINA RESULT:    -6.867      0.000      0.000
REMARK INTER + INTRA:          -8.624
REMARK INTER:                  -8.166
REMARK INTRA:                  -0.458
REMARK UNBOUND:                -0.553
REMARK  Name = 132190620
REMARK                            x       y       z     vdW  Elec       q    Type
REMARK                         _______ _______ _______ _____ _____    ______ ____
ROOT
ATOM      1  N   LIG    1       -6.498  -8.780   0.876  0.00  0.00    -0.269 N 
ATOM      2  H   LIG    1       -6.695  -8.999  -0.063  0.00  0.00    +0.156 HD
ATOM      3  C   LIG    1       -6.510  -7.427   1.195  0.00  0.00    +0.308 C 
ATOM      4  N   LIG    1       -6.805  -6.682   0.058  0.00  0.00    -0.269 N 
ATOM      5  H   LIG    1       -6.953  -7.199  -0.767  0.00  0.00    +0.156 HD
ATOM      6  O   LIG    1       -6.294  -6.966   2.305  0.00  0.00    -0.252 OA
ENDROOT
BRANCH   4   7
ATOM      7  C   LIG    1       -6.919  -5.283  -0.064  0.00  0.00    +0.038 A 
ATOM      8  C   LIG    1       -8.199  -4.785  -0.407  0.00  0.00    +0.027 A 
ATOM      9  C   LIG    1       -8.433  -3.413  -0.548  0.00  0.00    +0.051 A 
ATOM     10  C   LIG    1       -7.371  -2.565  -0.341  0.00  0.00    +0.173 A 
ATOM     11  C   LIG    1       -6.122  -3.039  -0.013  0.00  0.00    +0.174 A 
ATOM     12  O   LIG    1       -5.213  -2.038   0.143  0.00  0.00    -0.395 OA
ATOM     13  C   LIG    1       -6.054  -0.899  -0.078  0.00  0.00    +0.589 C 
ATOM     14  F   LIG    1       -5.518  -0.147  -1.070  0.00  0.00    -0.125 F 
ATOM     15  F   LIG    1       -6.063  -0.145   1.050  0.00  0.00    -0.125 F 
ATOM     16  O   LIG    1       -7.412  -1.209  -0.426  0.00  0.00    -0.395 OA
ATOM     17  C   LIG    1       -5.864  -4.389   0.133  0.00  0.00    +0.073 A 
ENDBRANCH   4   7
BRANCH   1  22
ATOM     18 CL   LIG    1       -5.806 -13.377   4.570  0.00  0.00    -0.083 Cl
ATOM     19  C   LIG    1       -5.920 -12.054   3.468  0.00  0.00    +0.053 A 
ATOM     20  C   LIG    1       -4.808 -11.552   2.782  0.00  0.00    +0.075 A 
ATOM     21  C   LIG    1       -4.987 -10.462   1.900  0.00  0.00    +0.037 A 
ATOM     22  C   LIG    1       -6.242  -9.877   1.719  0.00  0.00    +0.035 A 
ATOM     23  C   LIG    1       -7.337 -10.399   2.417  0.00  0.00    +0.025 A 
ATOM     24  C   LIG    1       -7.179 -11.482   3.282  0.00  0.00    +0.022 A 
BRANCH  20  25
ATOM     25  C   LIG    1       -3.436 -12.137   2.987  0.00  0.00    +0.419 C 
ATOM     26  F   LIG    1       -3.276 -13.347   2.384  0.00  0.00    -0.166 F 
ATOM     27  F   LIG    1       -3.133 -12.320   4.302  0.00  0.00    -0.166 F 
ATOM     28  F   LIG    1       -2.433 -11.355   2.494  0.00  0.00    -0.166 F 
ENDBRANCH  20  25
ENDBRANCH   1  22
TORSDOF 3
ENDMDL
MODEL 2
REMARK VINA RESULT:    -6.585     15.407     15.849
REMARK INTER + INTRA:          -8.293
REMARK INTER:                  -7.901
REMARK INTRA:                  -0.392
REMARK UNBOUND:                -0.553
REMARK  Name = 132190620
REMARK                            x       y       z     vdW  Elec       q    Type
REMARK                         _______ _______ _______ _____ _____    ______ ____
ROOT
ATOM      1  N   LIG    1        2.480  -8.383 -10.877  0.00  0.00    -0.269 N 
ATOM      2  H   LIG    1        1.629  -8.567 -10.419  0.00  0.00    +0.156 HD
ATOM      3  C   LIG    1        2.503  -7.244 -11.674  0.00  0.00    +0.308 C 
ATOM      4  N   LIG    1        1.262  -6.618 -11.628  0.00  0.00    -0.269 N 
ATOM      5  H   LIG    1        0.581  -7.056 -11.066  0.00  0.00    +0.156 HD
ATOM      6  O   LIG    1        3.467  -6.853 -12.313  0.00  0.00    -0.252 OA
ENDROOT
BRANCH   4   7
ATOM      7  C   LIG    1        0.853  -5.439 -12.283  0.00  0.00    +0.038 A 
ATOM      8  C   LIG    1       -0.009  -5.604 -13.394  0.00  0.00    +0.027 A 
ATOM      9  C   LIG    1       -0.485  -4.505 -14.115  0.00  0.00    +0.051 A 
ATOM     10  C   LIG    1       -0.083  -3.255 -13.706  0.00  0.00    +0.173 A 
ATOM     11  C   LIG    1        0.761  -3.085 -12.633  0.00  0.00    +0.174 A 
ATOM     12  O   LIG    1        1.039  -1.774 -12.396  0.00  0.00    -0.395 OA
ATOM     13  C   LIG    1        0.237  -1.160 -13.413  0.00  0.00    +0.589 C 
ATOM     14  F   LIG    1        1.029  -0.364 -14.172  0.00  0.00    -0.125 F 
ATOM     15  F   LIG    1       -0.686  -0.367 -12.813  0.00  0.00    -0.125 F 
ATOM     16  O   LIG    1       -0.448  -2.078 -14.278  0.00  0.00    -0.395 OA
ATOM     17  C   LIG    1        1.245  -4.154 -11.901  0.00  0.00    +0.073 A 
ENDBRANCH   4   7
BRANCH   1  22
ATOM     18 CL   LIG    1        6.577 -12.588  -9.992  0.00  0.00    -0.083 Cl
ATOM     19  C   LIG    1        5.450 -11.302 -10.226  0.00  0.00    +0.053 A 
ATOM     20  C   LIG    1        5.731  -9.983  -9.853  0.00  0.00    +0.075 A 
ATOM     21  C   LIG    1        4.750  -8.990 -10.075  0.00  0.00    +0.037 A 
ATOM     22  C   LIG    1        3.514  -9.309 -10.641  0.00  0.00    +0.035 A 
ATOM     23  C   LIG    1        3.260 -10.635 -11.005  0.00  0.00    +0.025 A 
ATOM     24  C   LIG    1        4.221 -11.625 -10.803  0.00  0.00    +0.022 A 
BRANCH  20  25
ATOM     25  C   LIG    1        7.039  -9.616  -9.205  0.00  0.00    +0.419 C 
ATOM     26  F   LIG    1        7.007  -8.405  -8.584  0.00  0.00    -0.166 F 
ATOM     27  F   LIG    1        8.070  -9.564 -10.095  0.00  0.00    -0.166 F 
ATOM     28  F   LIG    1        7.438 -10.501  -8.248  0.00  0.00    -0.166 F 
ENDBRANCH  20  25
ENDBRANCH   1  22
TORSDOF 3
ENDMDL
MODEL 3
REMARK VINA RESULT:    -6.547     23.531     24.966
REMARK INTER + INTRA:          -8.248
REMARK INTER:                  -8.143
REMARK INTRA:                  -0.105
REMARK UNBOUND:                -0.553
REMARK  Name = 132190620
REMARK                            x       y       z     vdW  Elec       q    Type
REMARK                         _______ _______ _______ _____ _____    ______ ____
ROOT
ATOM      1  N   LIG    1       10.854   8.890  -4.638  0.00  0.00    -0.269 N 
ATOM      2  H   LIG    1       11.383   8.105  -4.909  0.00  0.00    +0.156 HD
ATOM      3  C   LIG    1       10.770   9.117  -3.269  0.00  0.00    +0.308 C 
ATOM      4  N   LIG    1       11.483   8.136  -2.589  0.00  0.00    -0.269 N 
ATOM      5  H   LIG    1       11.920   7.455  -3.151  0.00  0.00    +0.156 HD
ATOM      6  O   LIG    1       10.163  10.039  -2.746  0.00  0.00    -0.252 OA
ENDROOT
BRANCH   4   7
ATOM      7  C   LIG    1       11.661   7.991  -1.198  0.00  0.00    +0.038 A 
ATOM      8  C   LIG    1       12.470   6.908  -0.778  0.00  0.00    +0.027 A 
ATOM      9  C   LIG    1       12.723   6.671   0.577  0.00  0.00    +0.051 A 
ATOM     10  C   LIG    1       12.155   7.530   1.488  0.00  0.00    +0.173 A 
ATOM     11  C   LIG    1       11.361   8.581   1.090  0.00  0.00    +0.174 A 
ATOM     12  O   LIG    1       10.895   9.305   2.144  0.00  0.00    -0.395 OA
ATOM     13  C   LIG    1       11.528   8.610   3.225  0.00  0.00    +0.589 C 
ATOM     14  F   LIG    1       10.577   8.213   4.105  0.00  0.00    -0.125 F 
ATOM     15  F   LIG    1       12.349   9.475   3.871  0.00  0.00    -0.125 F 
ATOM     16  O   LIG    1       12.296   7.460   2.838  0.00  0.00    -0.395 OA
ATOM     17  C   LIG    1       11.096   8.839  -0.242  0.00  0.00    +0.073 A 
ENDBRANCH   4   7
BRANCH   1  22
ATOM     18 CL   LIG    1        8.674  12.340  -8.950  0.00  0.00    -0.083 Cl
ATOM     19  C   LIG    1        9.252  11.269  -7.727  0.00  0.00    +0.053 A 
ATOM     20  C   LIG    1        8.669  10.019  -7.489  0.00  0.00    +0.075 A 
ATOM     21  C   LIG    1        9.202   9.204  -6.465  0.00  0.00    +0.037 A 
ATOM     22  C   LIG    1       10.279   9.632  -5.687  0.00  0.00    +0.035 A 
ATOM     23  C   LIG    1       10.843  10.886  -5.946  0.00  0.00    +0.025 A 
ATOM     24  C   LIG    1       10.337  11.698  -6.961  0.00  0.00    +0.022 A 
BRANCH  20  25
ATOM     25  C   LIG    1        7.482   9.547  -8.286  0.00  0.00    +0.419 C 
ATOM     26  F   LIG    1        7.071   8.296  -7.940  0.00  0.00    -0.166 F 
ATOM     27  F   LIG    1        7.728   9.513  -9.625  0.00  0.00    -0.166 F 
ATOM     28  F   LIG    1        6.383  10.340  -8.144  0.00  0.00    -0.166 F 
ENDBRANCH  20  25
ENDBRANCH   1  22
TORSDOF 3
ENDMDL
MODEL 4
REMARK VINA RESULT:    -6.528     23.234     25.005
REMARK INTER + INTRA:          -8.226
REMARK INTER:                  -8.308
REMARK INTRA:                   0.082
REMARK UNBOUND:                -0.553
REMARK  Name = 132190620
REMARK                            x       y       z     vdW  Elec       q    Type
REMARK                         _______ _______ _______ _____ _____    ______ ____
ROOT
ATOM      1  N   LIG    1       11.058   8.907  -4.762  0.00  0.00    -0.269 N 
ATOM      2  H   LIG    1       11.707   8.250  -5.102  0.00  0.00    +0.156 HD
ATOM      3  C   LIG    1       10.912   8.952  -3.380  0.00  0.00    +0.308 C 
ATOM      4  N   LIG    1       11.752   8.014  -2.792  0.00  0.00    -0.269 N 
ATOM      5  H   LIG    1       12.300   7.479  -3.412  0.00  0.00    +0.156 HD
ATOM      6  O   LIG    1       10.160   9.703  -2.778  0.00  0.00    -0.252 OA
ENDROOT
BRANCH   4   7
ATOM      7  C   LIG    1       11.921   7.730  -1.422  0.00  0.00    +0.038 A 
ATOM      8  C   LIG    1       11.246   8.583  -0.516  0.00  0.00    +0.027 A 
ATOM      9  C   LIG    1       11.333   8.393   0.867  0.00  0.00    +0.051 A 
ATOM     10  C   LIG    1       12.101   7.345   1.315  0.00  0.00    +0.173 A 
ATOM     11  C   LIG    1       12.767   6.514   0.443  0.00  0.00    +0.174 A 
ATOM     12  O   LIG    1       13.472   5.545   1.088  0.00  0.00    -0.395 OA
ATOM     13  C   LIG    1       13.127   5.846   2.446  0.00  0.00    +0.589 C 
ATOM     14  F   LIG    1       14.267   6.029   3.156  0.00  0.00    -0.125 F 
ATOM     15  F   LIG    1       12.483   4.775   2.974  0.00  0.00    -0.125 F 
ATOM     16  O   LIG    1       12.295   7.004   2.616  0.00  0.00    -0.395 OA
ATOM     17  C   LIG    1       12.697   6.679  -0.928  0.00  0.00    +0.073 A 
ENDBRANCH   4   7
BRANCH   1  22
ATOM     18 CL   LIG    1        8.503  12.480  -8.757  0.00  0.00    -0.083 Cl
ATOM     19  C   LIG    1        9.194  11.372  -7.630  0.00  0.00    +0.053 A 
ATOM     20  C   LIG    1        8.702  10.073  -7.458  0.00  0.00    +0.075 A 
ATOM     21  C   LIG    1        9.323   9.230  -6.509  0.00  0.00    +0.037 A 
ATOM     22  C   LIG    1       10.399   9.677  -5.739  0.00  0.00    +0.035 A 
ATOM     23  C   LIG    1       10.872  10.980  -5.932  0.00  0.00    +0.025 A 
ATOM     24  C   LIG    1       10.278  11.821  -6.872  0.00  0.00    +0.022 A 
BRANCH  20  25
ATOM     25  C   LIG    1        7.519   9.577  -8.245  0.00  0.00    +0.419 C 
ATOM     26  F   LIG    1        7.736   9.572  -9.589  0.00  0.00    -0.166 F 
ATOM     27  F   LIG    1        6.399  10.325  -8.039  0.00  0.00    -0.166 F 
ATOM     28  F   LIG    1        7.158   8.299  -7.934  0.00  0.00    -0.166 F 
ENDBRANCH  20  25
ENDBRANCH   1  22
TORSDOF 3
ENDMDL
MODEL 5
REMARK VINA RESULT:    -6.489      3.401      9.388
REMARK INTER + INTRA:          -8.180
REMARK INTER:                  -7.681
REMARK INTRA:                  -0.499
REMARK UNBOUND:                -0.553
REMARK  Name = 132190620
REMARK                            x       y       z     vdW  Elec       q    Type
REMARK                         _______ _______ _______ _____ _____    ______ ____
ROOT
ATOM      1  N   LIG    1       -6.779  -6.285   0.016  0.00  0.00    -0.269 N 
ATOM      2  H   LIG    1       -7.103  -6.778  -0.772  0.00  0.00    +0.156 HD
ATOM      3  C   LIG    1       -6.435  -7.063   1.116  0.00  0.00    +0.308 C 
ATOM      4  N   LIG    1       -6.647  -8.405   0.821  0.00  0.00    -0.269 N 
ATOM      5  H   LIG    1       -6.995  -8.597  -0.080  0.00  0.00    +0.156 HD
ATOM      6  O   LIG    1       -6.011  -6.630   2.176  0.00  0.00    -0.252 OA
ENDROOT
BRANCH   4   7
ATOM      7  C   LIG    1       -6.427  -9.526   1.648  0.00  0.00    +0.038 A 
ATOM      8  C   LIG    1       -7.562 -10.046   2.316  0.00  0.00    +0.027 A 
ATOM      9  C   LIG    1       -7.465 -11.160   3.155  0.00  0.00    +0.051 A 
ATOM     10  C   LIG    1       -6.225 -11.732   3.309  0.00  0.00    +0.173 A 
ATOM     11  C   LIG    1       -5.115 -11.230   2.670  0.00  0.00    +0.174 A 
ATOM     12  O   LIG    1       -3.988 -11.937   2.958  0.00  0.00    -0.395 OA
ATOM     13  C   LIG    1       -4.539 -12.953   3.806  0.00  0.00    +0.589 C 
ATOM     14  F   LIG    1       -3.874 -12.944   4.986  0.00  0.00    -0.125 F 
ATOM     15  F   LIG    1       -4.327 -14.160   3.224  0.00  0.00    -0.125 F 
ATOM     16  O   LIG    1       -5.943 -12.820   4.074  0.00  0.00    -0.395 OA
ATOM     17  C   LIG    1       -5.182 -10.131   1.834  0.00  0.00    +0.073 A 
ENDBRANCH   4   7
BRANCH   1  22
ATOM     18 CL   LIG    1       -6.940  -0.393  -0.702  0.00  0.00    -0.083 Cl
ATOM     19  C   LIG    1       -6.807  -2.096  -0.458  0.00  0.00    +0.053 A 
ATOM     20  C   LIG    1       -5.604  -2.709  -0.090  0.00  0.00    +0.075 A 
ATOM     21  C   LIG    1       -5.580  -4.111   0.084  0.00  0.00    +0.037 A 
ATOM     22  C   LIG    1       -6.725  -4.884  -0.119  0.00  0.00    +0.035 A 
ATOM     23  C   LIG    1       -7.915  -4.246  -0.486  0.00  0.00    +0.025 A 
ATOM     24  C   LIG    1       -7.958  -2.862  -0.651  0.00  0.00    +0.022 A 
BRANCH  20  25
ATOM     25  C   LIG    1       -4.344  -1.906   0.098  0.00  0.00    +0.419 C 
ATOM     26  F   LIG    1       -3.962  -1.242  -1.027  0.00  0.00    -0.166 F 
ATOM     27  F   LIG    1       -3.282  -2.674   0.469  0.00  0.00    -0.166 F 
ATOM     28  F   LIG    1       -4.450  -0.949   1.063  0.00  0.00    -0.166 F 
ENDBRANCH  20  25
ENDBRANCH   1  22
TORSDOF 3
ENDMDL
