REMARK  Name = 132190620
REMARK                            x       y       z     vdW  Elec       q    Type
REMARK                         _______ _______ _______ _____ _____    ______ ____
ROOT
ATOM      1  N   LIG    1        3.985  -1.615  -0.910  0.00  0.00    -0.269 N 
ATOM      2  H   LIG    1        3.523  -2.048  -0.156  0.00  0.00    +0.156 HD
ATOM      3  C   LIG    1        3.214  -0.743  -1.671  0.00  0.00    +0.308 C 
ATOM      4  N   LIG    1        1.922  -0.696  -1.159  0.00  0.00    -0.269 N 
ATOM      5  H   LIG    1        1.751  -1.263  -0.371  0.00  0.00    +0.156 HD
ATOM      6  O   LIG    1        3.614  -0.115  -2.639  0.00  0.00    -0.252 OA
ENDROOT
BRANCH   4   7
ATOM      7  C   LIG    1        0.825   0.058  -1.624  0.00  0.00    +0.038 A 
ATOM      8  C   LIG    1        0.866   0.454  -2.982  0.00  0.00    +0.027 A 
ATOM      9  C   LIG    1       -0.169   1.199  -3.555  0.00  0.00    +0.051 A 
ATOM     10  C   LIG    1       -1.231   1.534  -2.747  0.00  0.00    +0.173 A 
ATOM     11  C   LIG    1       -1.276   1.160  -1.424  0.00  0.00    +0.174 A 
ATOM     12  O   LIG    1       -2.407   1.594  -0.802  0.00  0.00    -0.395 OA
ATOM     13  C   LIG    1       -3.068   2.233  -1.902  0.00  0.00    +0.589 C 
ATOM     14  F   LIG    1       -3.346   3.514  -1.558  0.00  0.00    -0.125 F 
ATOM     15  F   LIG    1       -4.248   1.602  -2.121  0.00  0.00    -0.125 F 
ATOM     16  O   LIG    1       -2.325   2.243  -3.130  0.00  0.00    -0.395 OA
ATOM     17  C   LIG    1       -0.267   0.423  -0.834  0.00  0.00    +0.073 A 
ENDBRANCH   4   7
BRANCH   1  22
ATOM     18 CL   LIG    1        9.780  -2.852  -1.280  0.00  0.00    -0.083 Cl
ATOM     19  C   LIG    1        8.082  -2.547  -1.247  0.00  0.00    +0.053 A 
ATOM     20  C   LIG    1        7.228  -2.949  -2.280  0.00  0.00    +0.075 A 
ATOM     21  C   LIG    1        5.850  -2.655  -2.177  0.00  0.00    +0.037 A 
ATOM     22  C   LIG    1        5.339  -1.963  -1.078  0.00  0.00    +0.035 A 
ATOM     23  C   LIG    1        6.214  -1.572  -0.059  0.00  0.00    +0.025 A 
ATOM     24  C   LIG    1        7.576  -1.865  -0.140  0.00  0.00    +0.022 A 
BRANCH  20  25
ATOM     25  C   LIG    1        7.756  -3.664  -3.496  0.00  0.00    +0.419 C 
ATOM     26  F   LIG    1        8.179  -4.930  -3.229  0.00  0.00    -0.166 F 
ATOM     27  F   LIG    1        8.811  -3.019  -4.067  0.00  0.00    -0.166 F 
ATOM     28  F   LIG    1        6.834  -3.794  -4.492  0.00  0.00    -0.166 F 
ENDBRANCH  20  25
ENDBRANCH   1  22
TORSDOF 3
