MODEL 1
REMARK VINA RESULT:   -11.355      0.000      0.000
REMARK INTER + INTRA:         -16.119
REMARK INTER:                 -16.473
REMARK INTRA:                   0.354
REMARK UNBOUND:                -1.445
REMARK SMILES CC(C)(C)c1cc(NC(=O)Nc2cccc(Cl)c2Cl)n(-c2ccc3c(c2)C[C@@H](C(:O):O)NC3)n1
REMARK SMILES IDX 34 1 20 2 7 3 6 4 5 5 8 6 11 8 9 9 10 10 12 12 18 13 13 14
REMARK SMILES IDX 16 15 19 16 14 17 17 18 15 19 21 20 22 21 26 22 23 23 25 24
REMARK SMILES IDX 24 25 27 26 33 27 28 28 32 29 29 31 30 32 31 33 2 34 1 35
REMARK SMILES IDX 3 36 4 37
REMARK H PARENT 11 7 8 11 32 30
REMARK Flexibility Score: inf
ROOT
ATOM      1  N   UNL     1      21.121  25.561  13.398  1.00  0.00    -0.170 NA
ATOM      2  N   UNL     1      20.853  24.416  12.634  1.00  0.00    -0.217 N 
ATOM      3  C   UNL     1      19.566  24.035  12.677  1.00  0.00     0.138 A 
ATOM      4  C   UNL     1      18.906  24.918  13.538  1.00  0.00     0.005 A 
ATOM      5  C   UNL     1      19.901  25.822  13.929  1.00  0.00     0.070 A 
ENDROOT
BRANCH   3   6
ATOM      6  N   UNL     1      19.182  22.931  12.020  1.00  0.00    -0.292 N 
ATOM      7  H   UNL     1      18.331  20.976  10.823  1.00  0.00     0.171 HD
ATOM      8  N   UNL     1      17.575  21.601  11.063  1.00  0.00    -0.306 N 
ATOM      9  C   UNL     1      17.896  22.734  11.713  1.00  0.00     0.324 C 
ATOM     10  O   UNL     1      17.045  23.583  11.985  1.00  0.00    -0.248 OA
ATOM     11  H   UNL     1      19.870  22.241  11.755  1.00  0.00     0.173 HD
BRANCH   8  12
ATOM     12  C   UNL     1      16.308  21.223  10.700  1.00  0.00     0.063 A 
ATOM     13  C   UNL     1      16.086  19.866  10.476  1.00  0.00     0.083 A 
ATOM     14  C   UNL     1      15.218  22.082  10.562  1.00  0.00    -0.037 A 
ATOM     15  C   UNL     1      14.869  19.296  10.120  1.00  0.00     0.061 A 
ATOM     16  Cl  UNL     1      17.491  18.841  10.688  1.00  0.00    -0.080 Cl
ATOM     17  C   UNL     1      13.979  21.542  10.206  1.00  0.00    -0.059 A 
ATOM     18  Cl  UNL     1      14.673  17.510   9.820  1.00  0.00    -0.083 Cl
ATOM     19  C   UNL     1      13.791  20.166   9.985  1.00  0.00    -0.042 A 
ENDBRANCH   8  12
ENDBRANCH   3   6
BRANCH   2  20
ATOM     20  C   UNL     1      21.863  23.885  11.941  1.00  0.00     0.067 A 
ATOM     21  C   UNL     1      23.079  23.626  12.571  1.00  0.00    -0.036 A 
ATOM     22  C   UNL     1      21.822  23.615  10.567  1.00  0.00    -0.033 A 
ATOM     23  C   UNL     1      24.164  23.136  11.884  1.00  0.00    -0.055 A 
ATOM     24  C   UNL     1      22.900  23.115   9.854  1.00  0.00    -0.039 A 
ATOM     25  C   UNL     1      24.075  22.867  10.536  1.00  0.00    -0.031 A 
ATOM     26  C   UNL     1      22.713  22.853   8.370  1.00  0.00    -0.001 C 
ATOM     27  C   UNL     1      25.296  22.303   9.862  1.00  0.00     0.022 C 
ATOM     28  C   UNL     1      23.866  22.064   7.752  1.00  0.00     0.115 C 
ATOM     29  N   UNL     1      25.098  22.417   8.433  1.00  0.00    -0.300 NA
ATOM     30  H   UNL     1      25.266  23.388   8.210  1.00  0.00     0.123 HD
BRANCH  28  31
ATOM     31  C   UNL     1      24.062  22.370   6.281  1.00  0.00     0.372 C 
ATOM     32  O   UNL     1      23.164  21.940   5.532  1.00  0.00    -0.246 OA
ATOM     33  O   UNL     1      25.050  23.006   5.827  1.00  0.00    -0.246 OA
ENDBRANCH  28  31
ENDBRANCH   2  20
BRANCH   5  34
ATOM     34  C   UNL     1      19.634  26.996  14.849  1.00  0.00     0.006 C 
ATOM     35  C   UNL     1      18.357  27.711  14.419  1.00  0.00    -0.054 C 
ATOM     36  C   UNL     1      20.827  27.944  14.804  1.00  0.00    -0.054 C 
ATOM     37  C   UNL     1      19.484  26.561  16.293  1.00  0.00    -0.054 C 
ENDBRANCH   5  34
TORSDOF 5
ENDMDL
MODEL 2
REMARK VINA RESULT:   -10.068      1.892      2.719
REMARK INTER + INTRA:         -14.456
REMARK INTER:                 -15.111
REMARK INTRA:                   0.655
REMARK UNBOUND:                -1.445
REMARK SMILES CC(C)(C)c1cc(NC(=O)Nc2cccc(Cl)c2Cl)n(-c2ccc3c(c2)C[C@@H](C(:O):O)NC3)n1
REMARK SMILES IDX 34 1 20 2 7 3 6 4 5 5 8 6 11 8 9 9 10 10 12 12 18 13 13 14
REMARK SMILES IDX 16 15 19 16 14 17 17 18 15 19 21 20 22 21 26 22 23 23 25 24
REMARK SMILES IDX 24 25 27 26 33 27 28 28 32 29 29 31 30 32 31 33 2 34 1 35
REMARK SMILES IDX 3 36 4 37
REMARK H PARENT 11 7 8 11 32 30
REMARK Flexibility Score: inf
ROOT
ATOM      1  N   UNL     1      21.215  25.570  13.721  1.00  0.00    -0.170 NA
ATOM      2  N   UNL     1      20.965  24.551  12.790  1.00  0.00    -0.217 N 
ATOM      3  C   UNL     1      19.722  24.049  12.869  1.00  0.00     0.138 A 
ATOM      4  C   UNL     1      19.081  24.707  13.925  1.00  0.00     0.005 A 
ATOM      5  C   UNL     1      20.035  25.621  14.387  1.00  0.00     0.070 A 
ENDROOT
BRANCH   3   6
ATOM      6  N   UNL     1      19.364  23.041  12.061  1.00  0.00    -0.292 N 
ATOM      7  H   UNL     1      18.559  21.252  10.601  1.00  0.00     0.171 HD
ATOM      8  N   UNL     1      17.784  21.786  10.969  1.00  0.00    -0.306 N 
ATOM      9  C   UNL     1      18.077  22.820  11.777  1.00  0.00     0.324 C 
ATOM     10  O   UNL     1      17.197  23.564  12.215  1.00  0.00    -0.248 OA
ATOM     11  H   UNL     1      20.073  22.443  11.662  1.00  0.00     0.173 HD
BRANCH   8  12
ATOM     12  C   UNL     1      16.522  21.396  10.600  1.00  0.00     0.063 A 
ATOM     13  C   UNL     1      16.292  20.030  10.456  1.00  0.00     0.083 A 
ATOM     14  C   UNL     1      15.443  22.253  10.384  1.00  0.00    -0.037 A 
ATOM     15  C   UNL     1      15.078  19.448  10.107  1.00  0.00     0.061 A 
ATOM     16  Cl  UNL     1      17.682  19.009  10.764  1.00  0.00    -0.080 Cl
ATOM     17  C   UNL     1      14.208  21.702  10.033  1.00  0.00    -0.059 A 
ATOM     18  Cl  UNL     1      14.873  17.649   9.915  1.00  0.00    -0.083 Cl
ATOM     19  C   UNL     1      14.012  20.317   9.894  1.00  0.00    -0.042 A 
ENDBRANCH   8  12
ENDBRANCH   3   6
BRANCH   2  20
ATOM     20  C   UNL     1      21.942  24.242  11.934  1.00  0.00     0.067 A 
ATOM     21  C   UNL     1      21.630  23.723  10.679  1.00  0.00    -0.036 A 
ATOM     22  C   UNL     1      23.309  24.337  12.229  1.00  0.00    -0.033 A 
ATOM     23  C   UNL     1      22.603  23.335   9.789  1.00  0.00    -0.055 A 
ATOM     24  C   UNL     1      24.308  23.958  11.347  1.00  0.00    -0.039 A 
ATOM     25  C   UNL     1      23.937  23.463  10.112  1.00  0.00    -0.031 A 
ATOM     26  C   UNL     1      25.751  24.130  11.790  1.00  0.00    -0.001 C 
ATOM     27  C   UNL     1      24.942  23.046   9.074  1.00  0.00     0.022 C 
ATOM     28  C   UNL     1      26.752  23.933  10.653  1.00  0.00     0.115 C 
ATOM     29  N   UNL     1      26.229  22.943   9.729  1.00  0.00    -0.300 NA
ATOM     30  H   UNL     1      26.207  22.074  10.242  1.00  0.00     0.123 HD
BRANCH  28  31
ATOM     31  C   UNL     1      28.096  23.429  11.137  1.00  0.00     0.372 C 
ATOM     32  O   UNL     1      28.966  23.323  10.251  1.00  0.00    -0.246 OA
ATOM     33  O   UNL     1      28.339  23.133  12.338  1.00  0.00    -0.246 OA
ENDBRANCH  28  31
ENDBRANCH   2  20
BRANCH   5  34
ATOM     34  C   UNL     1      19.767  26.592  15.519  1.00  0.00     0.006 C 
ATOM     35  C   UNL     1      21.044  26.820  16.320  1.00  0.00    -0.054 C 
ATOM     36  C   UNL     1      18.663  26.027  16.407  1.00  0.00    -0.054 C 
ATOM     37  C   UNL     1      19.267  27.930  15.011  1.00  0.00    -0.054 C 
ENDBRANCH   5  34
TORSDOF 5
ENDMDL
MODEL 3
REMARK VINA RESULT:    -8.867      5.206      8.361
REMARK INTER + INTRA:         -12.904
REMARK INTER:                 -11.702
REMARK INTRA:                  -1.202
REMARK UNBOUND:                -1.445
REMARK SMILES CC(C)(C)c1cc(NC(=O)Nc2cccc(Cl)c2Cl)n(-c2ccc3c(c2)C[C@@H](C(:O):O)NC3)n1
REMARK SMILES IDX 34 1 20 2 7 3 6 4 5 5 8 6 11 8 9 9 10 10 12 12 18 13 13 14
REMARK SMILES IDX 16 15 19 16 14 17 17 18 15 19 21 20 22 21 26 22 23 23 25 24
REMARK SMILES IDX 24 25 27 26 33 27 28 28 32 29 29 31 30 32 31 33 2 34 1 35
REMARK SMILES IDX 3 36 4 37
REMARK H PARENT 11 7 8 11 32 30
REMARK Flexibility Score: inf
ROOT
ATOM      1  N   UNL     1      21.103  24.858  13.658  1.00  0.00    -0.170 NA
ATOM      2  N   UNL     1      22.271  25.330  13.042  1.00  0.00    -0.217 N 
ATOM      3  C   UNL     1      22.620  26.565  13.435  1.00  0.00     0.138 A 
ATOM      4  C   UNL     1      21.639  27.002  14.332  1.00  0.00     0.005 A 
ATOM      5  C   UNL     1      20.759  25.918  14.432  1.00  0.00     0.070 A 
ENDROOT
BRANCH   3   6
ATOM      6  N   UNL     1      23.697  27.151  12.894  1.00  0.00    -0.292 N 
ATOM      7  H   UNL     1      25.745  28.178  12.036  1.00  0.00     0.171 HD
ATOM      8  N   UNL     1      25.892  27.817  12.968  1.00  0.00    -0.306 N 
ATOM      9  C   UNL     1      24.853  27.205  13.563  1.00  0.00     0.324 C 
ATOM     10  O   UNL     1      24.965  26.678  14.672  1.00  0.00    -0.248 OA
ATOM     11  H   UNL     1      23.636  27.557  11.971  1.00  0.00     0.173 HD
BRANCH   8  12
ATOM     12  C   UNL     1      27.135  27.992  13.520  1.00  0.00     0.063 A 
ATOM     13  C   UNL     1      28.123  27.072  13.175  1.00  0.00     0.083 A 
ATOM     14  C   UNL     1      27.498  29.029  14.378  1.00  0.00    -0.037 A 
ATOM     15  C   UNL     1      29.440  27.099  13.619  1.00  0.00     0.061 A 
ATOM     16  Cl  UNL     1      27.606  25.809  12.077  1.00  0.00    -0.080 Cl
ATOM     17  C   UNL     1      28.815  29.086  14.843  1.00  0.00    -0.059 A 
ATOM     18  Cl  UNL     1      30.662  25.838  13.136  1.00  0.00    -0.083 Cl
ATOM     19  C   UNL     1      29.786  28.139  14.475  1.00  0.00    -0.042 A 
ENDBRANCH   8  12
ENDBRANCH   3   6
BRANCH   2  20
ATOM     20  C   UNL     1      22.902  24.507  12.201  1.00  0.00     0.067 A 
ATOM     21  C   UNL     1      24.092  23.894  12.588  1.00  0.00    -0.036 A 
ATOM     22  C   UNL     1      22.486  24.250  10.888  1.00  0.00    -0.033 A 
ATOM     23  C   UNL     1      24.806  23.087  11.734  1.00  0.00    -0.055 A 
ATOM     24  C   UNL     1      23.185  23.436  10.011  1.00  0.00    -0.039 A 
ATOM     25  C   UNL     1      24.351  22.846  10.456  1.00  0.00    -0.031 A 
ATOM     26  C   UNL     1      22.611  23.231   8.619  1.00  0.00    -0.001 C 
ATOM     27  C   UNL     1      25.172  21.928   9.592  1.00  0.00     0.022 C 
ATOM     28  C   UNL     1      23.314  22.121   7.841  1.00  0.00     0.115 C 
ATOM     29  N   UNL     1      24.713  22.085   8.229  1.00  0.00    -0.300 NA
ATOM     30  H   UNL     1      25.110  22.955   7.904  1.00  0.00     0.123 HD
BRANCH  28  31
ATOM     31  C   UNL     1      23.269  22.337   6.342  1.00  0.00     0.372 C 
ATOM     32  O   UNL     1      24.056  23.204   5.914  1.00  0.00    -0.246 OA
ATOM     33  O   UNL     1      22.504  21.703   5.568  1.00  0.00    -0.246 OA
ENDBRANCH  28  31
ENDBRANCH   2  20
BRANCH   5  34
ATOM     34  C   UNL     1      19.542  25.923  15.334  1.00  0.00     0.006 C 
ATOM     35  C   UNL     1      19.321  24.529  15.912  1.00  0.00    -0.054 C 
ATOM     36  C   UNL     1      18.329  26.375  14.529  1.00  0.00    -0.054 C 
ATOM     37  C   UNL     1      19.690  26.906  16.478  1.00  0.00    -0.054 C 
ENDBRANCH   5  34
TORSDOF 5
ENDMDL
MODEL 4
REMARK VINA RESULT:    -8.431      5.516      8.198
REMARK INTER + INTRA:         -12.341
REMARK INTER:                 -11.868
REMARK INTRA:                  -0.473
REMARK UNBOUND:                -1.445
REMARK SMILES CC(C)(C)c1cc(NC(=O)Nc2cccc(Cl)c2Cl)n(-c2ccc3c(c2)C[C@@H](C(:O):O)NC3)n1
REMARK SMILES IDX 34 1 20 2 7 3 6 4 5 5 8 6 11 8 9 9 10 10 12 12 18 13 13 14
REMARK SMILES IDX 16 15 19 16 14 17 17 18 15 19 21 20 22 21 26 22 23 23 25 24
REMARK SMILES IDX 24 25 27 26 33 27 28 28 32 29 29 31 30 32 31 33 2 34 1 35
REMARK SMILES IDX 3 36 4 37
REMARK H PARENT 11 7 8 11 32 30
REMARK Flexibility Score: inf
ROOT
ATOM      1  N   UNL     1      27.102  25.507   9.690  1.00  0.00    -0.170 NA
ATOM      2  N   UNL     1      25.742  25.841   9.766  1.00  0.00    -0.217 N 
ATOM      3  C   UNL     1      25.205  25.619  10.976  1.00  0.00     0.138 A 
ATOM      4  C   UNL     1      26.212  25.068  11.777  1.00  0.00     0.005 A 
ATOM      5  C   UNL     1      27.335  25.040  10.942  1.00  0.00     0.070 A 
ENDROOT
BRANCH   3   6
ATOM      6  N   UNL     1      23.901  25.859  11.175  1.00  0.00    -0.292 N 
ATOM      7  H   UNL     1      21.555  26.318  11.692  1.00  0.00     0.171 HD
ATOM      8  N   UNL     1      22.109  26.310  12.536  1.00  0.00    -0.306 N 
ATOM      9  C   UNL     1      23.429  26.087  12.404  1.00  0.00     0.324 C 
ATOM     10  O   UNL     1      24.188  26.127  13.374  1.00  0.00    -0.248 OA
ATOM     11  H   UNL     1      23.268  25.867  10.388  1.00  0.00     0.173 HD
BRANCH   8  12
ATOM     12  C   UNL     1      21.453  26.528  13.720  1.00  0.00     0.063 A 
ATOM     13  C   UNL     1      20.906  25.419  14.361  1.00  0.00     0.083 A 
ATOM     14  C   UNL     1      21.311  27.765  14.348  1.00  0.00    -0.037 A 
ATOM     15  C   UNL     1      20.223  25.442  15.572  1.00  0.00     0.061 A 
ATOM     16  Cl  UNL     1      21.140  23.894  13.530  1.00  0.00    -0.080 Cl
ATOM     17  C   UNL     1      20.630  27.824  15.568  1.00  0.00    -0.059 A 
ATOM     18  Cl  UNL     1      19.516  23.943  16.327  1.00  0.00    -0.083 Cl
ATOM     19  C   UNL     1      20.089  26.684  16.185  1.00  0.00    -0.042 A 
ENDBRANCH   8  12
ENDBRANCH   3   6
BRANCH   2  20
ATOM     20  C   UNL     1      25.171  26.362   8.677  1.00  0.00     0.067 A 
ATOM     21  C   UNL     1      24.509  25.534   7.773  1.00  0.00    -0.036 A 
ATOM     22  C   UNL     1      25.242  27.716   8.321  1.00  0.00    -0.033 A 
ATOM     23  C   UNL     1      23.959  26.018   6.610  1.00  0.00    -0.055 A 
ATOM     24  C   UNL     1      24.691  28.229   7.158  1.00  0.00    -0.039 A 
ATOM     25  C   UNL     1      24.035  27.360   6.307  1.00  0.00    -0.031 A 
ATOM     26  C   UNL     1      24.828  29.720   6.903  1.00  0.00    -0.001 C 
ATOM     27  C   UNL     1      23.383  27.818   5.032  1.00  0.00     0.022 C 
ATOM     28  C   UNL     1      23.964  30.209   5.741  1.00  0.00     0.115 C 
ATOM     29  N   UNL     1      23.865  29.154   4.750  1.00  0.00    -0.300 NA
ATOM     30  H   UNL     1      24.798  29.036   4.381  1.00  0.00     0.123 HD
BRANCH  28  31
ATOM     31  C   UNL     1      24.548  31.423   5.048  1.00  0.00     0.372 C 
ATOM     32  O   UNL     1      24.035  31.694   3.946  1.00  0.00    -0.246 OA
ATOM     33  O   UNL     1      25.482  32.119   5.529  1.00  0.00    -0.246 OA
ENDBRANCH  28  31
ENDBRANCH   2  20
BRANCH   5  34
ATOM     34  C   UNL     1      28.692  24.546  11.400  1.00  0.00     0.006 C 
ATOM     35  C   UNL     1      28.519  23.500  12.496  1.00  0.00    -0.054 C 
ATOM     36  C   UNL     1      29.507  25.732  11.906  1.00  0.00    -0.054 C 
ATOM     37  C   UNL     1      29.485  23.933  10.264  1.00  0.00    -0.054 C 
ENDBRANCH   5  34
TORSDOF 5
ENDMDL
MODEL 5
REMARK VINA RESULT:    -8.367      6.194      8.265
REMARK INTER + INTRA:         -12.258
REMARK INTER:                 -11.376
REMARK INTRA:                  -0.882
REMARK UNBOUND:                -1.445
REMARK SMILES CC(C)(C)c1cc(NC(=O)Nc2cccc(Cl)c2Cl)n(-c2ccc3c(c2)C[C@@H](C(:O):O)NC3)n1
REMARK SMILES IDX 34 1 20 2 7 3 6 4 5 5 8 6 11 8 9 9 10 10 12 12 18 13 13 14
REMARK SMILES IDX 16 15 19 16 14 17 17 18 15 19 21 20 22 21 26 22 23 23 25 24
REMARK SMILES IDX 24 25 27 26 33 27 28 28 32 29 29 31 30 32 31 33 2 34 1 35
REMARK SMILES IDX 3 36 4 37
REMARK H PARENT 11 7 8 11 32 30
REMARK Flexibility Score: inf
ROOT
ATOM      1  N   UNL     1      27.624  27.783  10.698  1.00  0.00    -0.170 NA
ATOM      2  N   UNL     1      26.224  27.838  10.627  1.00  0.00    -0.217 N 
ATOM      3  C   UNL     1      25.635  28.002  11.822  1.00  0.00     0.138 A 
ATOM      4  C   UNL     1      26.654  28.021  12.781  1.00  0.00     0.005 A 
ATOM      5  C   UNL     1      27.830  27.897  12.034  1.00  0.00     0.070 A 
ENDROOT
BRANCH   3   6
ATOM      6  N   UNL     1      24.297  28.032  11.901  1.00  0.00    -0.292 N 
ATOM      7  H   UNL     1      21.865  27.959  12.140  1.00  0.00     0.171 HD
ATOM      8  N   UNL     1      22.292  27.179  12.620  1.00  0.00    -0.306 N 
ATOM      9  C   UNL     1      23.634  27.098  12.590  1.00  0.00     0.324 C 
ATOM     10  O   UNL     1      24.239  26.217  13.203  1.00  0.00    -0.248 OA
ATOM     11  H   UNL     1      23.785  28.767  11.435  1.00  0.00     0.173 HD
BRANCH   8  12
ATOM     12  C   UNL     1      21.454  26.293  13.247  1.00  0.00     0.063 A 
ATOM     13  C   UNL     1      20.818  26.726  14.408  1.00  0.00     0.083 A 
ATOM     14  C   UNL     1      21.168  25.002  12.803  1.00  0.00    -0.037 A 
ATOM     15  C   UNL     1      19.925  25.977  15.166  1.00  0.00     0.061 A 
ATOM     16  Cl  UNL     1      21.206  28.364  14.896  1.00  0.00    -0.080 Cl
ATOM     17  C   UNL     1      20.273  24.222  13.542  1.00  0.00    -0.059 A 
ATOM     18  Cl  UNL     1      19.158  26.616  16.689  1.00  0.00    -0.083 Cl
ATOM     19  C   UNL     1      19.651  24.691  14.711  1.00  0.00    -0.042 A 
ENDBRANCH   8  12
ENDBRANCH   3   6
BRANCH   2  20
ATOM     20  C   UNL     1      25.663  27.769   9.417  1.00  0.00     0.067 A 
ATOM     21  C   UNL     1      25.305  26.531   8.886  1.00  0.00    -0.036 A 
ATOM     22  C   UNL     1      25.457  28.872   8.578  1.00  0.00    -0.033 A 
ATOM     23  C   UNL     1      24.780  26.406   7.622  1.00  0.00    -0.055 A 
ATOM     24  C   UNL     1      24.924  28.772   7.303  1.00  0.00    -0.039 A 
ATOM     25  C   UNL     1      24.576  27.520   6.836  1.00  0.00    -0.031 A 
ATOM     26  C   UNL     1      24.739  30.052   6.507  1.00  0.00    -0.001 C 
ATOM     27  C   UNL     1      23.970  27.304   5.477  1.00  0.00     0.022 C 
ATOM     28  C   UNL     1      23.910  29.853   5.239  1.00  0.00     0.115 C 
ATOM     29  N   UNL     1      24.158  28.522   4.717  1.00  0.00    -0.300 NA
ATOM     30  H   UNL     1      25.126  28.517   4.427  1.00  0.00     0.123 HD
BRANCH  28  31
ATOM     31  C   UNL     1      24.267  30.838   4.145  1.00  0.00     0.372 C 
ATOM     32  O   UNL     1      25.290  30.550   3.494  1.00  0.00    -0.246 OA
ATOM     33  O   UNL     1      23.597  31.876   3.895  1.00  0.00    -0.246 OA
ENDBRANCH  28  31
ENDBRANCH   2  20
BRANCH   5  34
ATOM     34  C   UNL     1      29.210  27.906  12.659  1.00  0.00     0.006 C 
ATOM     35  C   UNL     1      29.199  28.753  13.927  1.00  0.00    -0.054 C 
ATOM     36  C   UNL     1      30.210  28.456  11.647  1.00  0.00    -0.054 C 
ATOM     37  C   UNL     1      29.680  26.509  13.012  1.00  0.00    -0.054 C 
ENDBRANCH   5  34
TORSDOF 5
ENDMDL
