REMARK SMILES CC(C)(C)c1cc(NC(=O)Nc2cccc(Cl)c2Cl)n(-c2ccc3c(c2)C[C@@H](C(:O):O)NC3)n1
REMARK SMILES IDX 34 1 20 2 7 3 6 4 5 5 8 6 11 8 9 9 10 10 12 12 18 13 13 14
REMARK SMILES IDX 16 15 19 16 14 17 17 18 15 19 21 20 22 21 26 22 23 23 25 24
REMARK SMILES IDX 24 25 27 26 33 27 28 28 32 29 29 31 30 32 31 33 2 34 1 35
REMARK SMILES IDX 3 36 4 37
REMARK H PARENT 11 7 8 11 32 30
REMARK Flexibility Score: inf
ROOT
ATOM      1  N   UNL     1      21.136  25.474  13.474  1.00  0.00    -0.170 NA
ATOM      2  N   UNL     1      20.864  24.382  12.637  1.00  0.00    -0.217 N 
ATOM      3  C   UNL     1      19.569  24.025  12.629  1.00  0.00     0.138 A 
ATOM      4  C   UNL     1      18.906  24.869  13.527  1.00  0.00     0.005 A 
ATOM      5  C   UNL     1      19.909  25.728  13.993  1.00  0.00     0.070 A 
ENDROOT
BRANCH   3   6
ATOM      6  N   UNL     1      19.179  22.970  11.899  1.00  0.00    -0.292 N 
ATOM      7  H   UNL     1      18.317  21.100  10.581  1.00  0.00     0.171 HD
ATOM      8  N   UNL     1      17.559  21.680  10.912  1.00  0.00    -0.306 N 
ATOM      9  C   UNL     1      17.884  22.763  11.640  1.00  0.00     0.324 C 
ATOM     10  O   UNL     1      17.028  23.559  12.027  1.00  0.00    -0.248 OA
ATOM     11  H   UNL     1      19.870  22.326  11.542  1.00  0.00     0.173 HD
BRANCH   8  12
ATOM     12  C   UNL     1      16.285  21.296  10.581  1.00  0.00     0.063 A 
ATOM     13  C   UNL     1      16.048  19.932  10.427  1.00  0.00     0.083 A 
ATOM     14  C   UNL     1      15.202  22.158  10.411  1.00  0.00    -0.037 A 
ATOM     15  C   UNL     1      14.822  19.357  10.112  1.00  0.00     0.061 A 
ATOM     16  Cl  UNL     1      17.446  18.905  10.676  1.00  0.00    -0.080 Cl
ATOM     17  C   UNL     1      13.954  21.613  10.095  1.00  0.00    -0.059 A 
ATOM     18  Cl  UNL     1      14.607  17.561   9.903  1.00  0.00    -0.083 Cl
ATOM     19  C   UNL     1      13.751  20.230   9.945  1.00  0.00    -0.042 A 
ENDBRANCH   8  12
ENDBRANCH   3   6
BRANCH   2  20
ATOM     20  C   UNL     1      21.879  23.872  11.936  1.00  0.00     0.067 A 
ATOM     21  C   UNL     1      23.109  23.651  12.553  1.00  0.00    -0.036 A 
ATOM     22  C   UNL     1      21.829  23.591  10.564  1.00  0.00    -0.033 A 
ATOM     23  C   UNL     1      24.199  23.184  11.857  1.00  0.00    -0.055 A 
ATOM     24  C   UNL     1      22.912  23.114   9.842  1.00  0.00    -0.039 A 
ATOM     25  C   UNL     1      24.101  22.902  10.512  1.00  0.00    -0.031 A 
ATOM     26  C   UNL     1      22.714  22.837   8.362  1.00  0.00    -0.001 C 
ATOM     27  C   UNL     1      25.328  22.366   9.828  1.00  0.00     0.022 C 
ATOM     28  C   UNL     1      23.880  22.074   7.737  1.00  0.00     0.115 C 
ATOM     29  N   UNL     1      25.110  22.464   8.400  1.00  0.00    -0.300 NA
ATOM     30  H   UNL     1      25.250  23.437   8.168  1.00  0.00     0.123 HD
BRANCH  28  31
ATOM     31  C   UNL     1      24.051  22.373   6.261  1.00  0.00     0.372 C 
ATOM     32  O   UNL     1      25.071  23.029   5.975  1.00  0.00    -0.246 OA
ATOM     33  O   UNL     1      23.238  21.999   5.375  1.00  0.00    -0.246 OA
ENDBRANCH  28  31
ENDBRANCH   2  20
BRANCH   5  34
ATOM     34  C   UNL     1      19.643  26.851  14.975  1.00  0.00     0.006 C 
ATOM     35  C   UNL     1      19.268  26.271  16.335  1.00  0.00    -0.054 C 
ATOM     36  C   UNL     1      18.522  27.730  14.432  1.00  0.00    -0.054 C 
ATOM     37  C   UNL     1      20.851  27.750  15.147  1.00  0.00    -0.054 C 
ENDBRANCH   5  34
TORSDOF 5
