MODEL 1
REMARK VINA RESULT:    -7.717      0.000      0.000
REMARK INTER + INTRA:          -9.392
REMARK INTER:                  -9.322
REMARK INTRA:                  -0.070
REMARK UNBOUND:                -0.322
REMARK SMILES O=C(Nc1ccc2c(c1)OC(F)(F)O2)Nc1ccc(Cl)c(C(F)(F)F)c1
REMARK SMILES IDX 20 1 16 2 21 3 26 4 17 5 19 6 18 7 22 8 23 9 24 10 25 11
REMARK SMILES IDX 15 12 2 13 1 15 3 16 4 18 9 19 5 20 8 21 6 22 10 23 7 24
REMARK SMILES IDX 11 25 14 26 12 27 13 28
REMARK H PARENT 15 14 3 17
REMARK Flexibility Score: inf
ROOT
ATOM      1  Cl  UNL     1      26.882  -0.513  15.349  1.00  0.00    -0.084 Cl
ATOM      2  C   UNL     1      22.983   1.037  13.680  1.00  0.00     0.043 A 
ATOM      3  C   UNL     1      24.394  -0.830  14.281  1.00  0.00     0.076 A 
ATOM      4  C   UNL     1      23.194  -0.339  13.768  1.00  0.00     0.040 A 
ATOM      5  C   UNL     1      23.973   1.923  14.104  1.00  0.00     0.028 A 
ATOM      6  C   UNL     1      25.384   0.056  14.706  1.00  0.00     0.053 A 
ATOM      7  C   UNL     1      25.174   1.433  14.618  1.00  0.00     0.023 A 
ENDROOT
BRANCH   3   8
ATOM      8  C   UNL     1      24.580  -2.310  14.361  1.00  0.00     0.417 C 
ATOM      9  F   UNL     1      25.818  -2.703  13.944  1.00  0.00    -0.166 F 
ATOM     10  F   UNL     1      24.440  -2.810  15.623  1.00  0.00    -0.166 F 
ATOM     11  F   UNL     1      23.694  -3.012  13.596  1.00  0.00    -0.166 F 
ENDBRANCH   3   8
BRANCH   2  12
ATOM     12  N   UNL     1      21.766   1.534  13.157  1.00  0.00    -0.308 N 
ATOM     13  C   UNL     1      20.941   0.951  12.183  1.00  0.00     0.323 C 
ATOM     14  H   UNL     1      21.459   2.425  13.540  1.00  0.00     0.171 HD
ATOM     15  O   UNL     1      21.156  -0.116  11.617  1.00  0.00    -0.248 OA
ATOM     16  N   UNL     1      19.815   1.776  11.944  1.00  0.00    -0.308 N 
ATOM     17  H   UNL     1      19.769   2.634  12.489  1.00  0.00     0.171 HD
BRANCH  16  18
ATOM     18  C   UNL     1      18.756   1.571  11.060  1.00  0.00     0.046 A 
ATOM     19  C   UNL     1      17.538   1.082  11.540  1.00  0.00     0.077 A 
ATOM     20  C   UNL     1      18.923   1.859   9.694  1.00  0.00     0.030 A 
ATOM     21  C   UNL     1      16.518   0.896  10.630  1.00  0.00     0.174 A 
ATOM     22  C   UNL     1      17.874   1.662   8.792  1.00  0.00     0.053 A 
ATOM     23  O   UNL     1      15.271   0.430  10.913  1.00  0.00    -0.395 OA
ATOM     24  C   UNL     1      16.682   1.179   9.291  1.00  0.00     0.172 A 
ATOM     25  C   UNL     1      14.684   0.455   9.603  1.00  0.00     0.586 C 
ATOM     26  O   UNL     1      15.557   0.926   8.566  1.00  0.00    -0.395 OA
ATOM     27  F   UNL     1      13.584   1.248   9.636  1.00  0.00    -0.125 F 
ATOM     28  F   UNL     1      14.274  -0.799   9.289  1.00  0.00    -0.125 F 
ENDBRANCH  16  18
ENDBRANCH   2  12
TORSDOF 3
ENDMDL
MODEL 2
REMARK VINA RESULT:    -7.397      3.918      9.480
REMARK INTER + INTRA:          -9.016
REMARK INTER:                  -8.467
REMARK INTRA:                  -0.549
REMARK UNBOUND:                -0.322
REMARK SMILES O=C(Nc1ccc2c(c1)OC(F)(F)O2)Nc1ccc(Cl)c(C(F)(F)F)c1
REMARK SMILES IDX 20 1 16 2 21 3 26 4 17 5 19 6 18 7 22 8 23 9 24 10 25 11
REMARK SMILES IDX 15 12 2 13 1 15 3 16 4 18 9 19 5 20 8 21 6 22 10 23 7 24
REMARK SMILES IDX 11 25 14 26 12 27 13 28
REMARK H PARENT 15 14 3 17
REMARK Flexibility Score: inf
ROOT
ATOM      1  Cl  UNL     1      15.757   0.501   8.325  1.00  0.00    -0.084 Cl
ATOM      2  C   UNL     1      18.860  -0.032  11.561  1.00  0.00     0.043 A 
ATOM      3  C   UNL     1      17.422  -0.998   9.877  1.00  0.00     0.076 A 
ATOM      4  C   UNL     1      18.382  -1.149  10.878  1.00  0.00     0.040 A 
ATOM      5  C   UNL     1      18.379   1.238  11.244  1.00  0.00     0.028 A 
ATOM      6  C   UNL     1      16.941   0.272   9.559  1.00  0.00     0.053 A 
ATOM      7  C   UNL     1      17.420   1.391  10.243  1.00  0.00     0.023 A 
ENDROOT
BRANCH   3   8
ATOM      8  C   UNL     1      16.936  -2.220   9.167  1.00  0.00     0.417 C 
ATOM      9  F   UNL     1      17.562  -3.354   9.593  1.00  0.00    -0.166 F 
ATOM     10  F   UNL     1      15.602  -2.451   9.330  1.00  0.00    -0.166 F 
ATOM     11  F   UNL     1      17.132  -2.177   7.817  1.00  0.00    -0.166 F 
ENDBRANCH   3   8
BRANCH   2  12
ATOM     12  N   UNL     1      19.831  -0.187  12.578  1.00  0.00    -0.308 N 
ATOM     13  C   UNL     1      21.215  -0.374  12.431  1.00  0.00     0.323 C 
ATOM     14  H   UNL     1      19.474  -0.157  13.530  1.00  0.00     0.171 HD
ATOM     15  O   UNL     1      21.813  -0.434  11.361  1.00  0.00    -0.248 OA
ATOM     16  N   UNL     1      21.827  -0.485  13.703  1.00  0.00    -0.308 N 
ATOM     17  H   UNL     1      21.203  -0.416  14.504  1.00  0.00     0.171 HD
BRANCH  16  18
ATOM     18  C   UNL     1      23.174  -0.677  14.009  1.00  0.00     0.046 A 
ATOM     19  C   UNL     1      23.935   0.395  14.484  1.00  0.00     0.077 A 
ATOM     20  C   UNL     1      23.754  -1.946  13.837  1.00  0.00     0.030 A 
ATOM     21  C   UNL     1      25.263   0.159  14.773  1.00  0.00     0.174 A 
ATOM     22  C   UNL     1      25.102  -2.159  14.138  1.00  0.00     0.053 A 
ATOM     23  O   UNL     1      26.153   1.076  15.243  1.00  0.00    -0.395 OA
ATOM     24  C   UNL     1      25.831  -1.085  14.605  1.00  0.00     0.172 A 
ATOM     25  C   UNL     1      27.331   0.263  15.343  1.00  0.00     0.586 C 
ATOM     26  O   UNL     1      27.149  -1.105  14.948  1.00  0.00    -0.395 OA
ATOM     27  F   UNL     1      27.766   0.287  16.628  1.00  0.00    -0.125 F 
ATOM     28  F   UNL     1      28.303   0.811  14.573  1.00  0.00    -0.125 F 
ENDBRANCH  16  18
ENDBRANCH   2  12
TORSDOF 3
ENDMDL
MODEL 3
REMARK VINA RESULT:    -7.390      4.185     10.034
REMARK INTER + INTRA:          -9.008
REMARK INTER:                  -8.566
REMARK INTRA:                  -0.442
REMARK UNBOUND:                -0.322
REMARK SMILES O=C(Nc1ccc2c(c1)OC(F)(F)O2)Nc1ccc(Cl)c(C(F)(F)F)c1
REMARK SMILES IDX 20 1 16 2 21 3 26 4 17 5 19 6 18 7 22 8 23 9 24 10 25 11
REMARK SMILES IDX 15 12 2 13 1 15 3 16 4 18 9 19 5 20 8 21 6 22 10 23 7 24
REMARK SMILES IDX 11 25 14 26 12 27 13 28
REMARK H PARENT 15 14 3 17
REMARK Flexibility Score: inf
ROOT
ATOM      1  Cl  UNL     1      11.621   2.889   8.948  1.00  0.00    -0.084 Cl
ATOM      2  C   UNL     1      15.739   1.077   9.328  1.00  0.00     0.043 A 
ATOM      3  C   UNL     1      14.236   2.615   8.227  1.00  0.00     0.076 A 
ATOM      4  C   UNL     1      15.503   2.048   8.355  1.00  0.00     0.040 A 
ATOM      5  C   UNL     1      14.707   0.672  10.174  1.00  0.00     0.028 A 
ATOM      6  C   UNL     1      13.203   2.210   9.073  1.00  0.00     0.053 A 
ATOM      7  C   UNL     1      13.438   1.238  10.047  1.00  0.00     0.023 A 
ENDROOT
BRANCH   3   8
ATOM      8  C   UNL     1      14.024   3.653   7.174  1.00  0.00     0.417 C 
ATOM      9  F   UNL     1      13.433   4.780   7.665  1.00  0.00    -0.166 F 
ATOM     10  F   UNL     1      15.178   4.070   6.580  1.00  0.00    -0.166 F 
ATOM     11  F   UNL     1      13.224   3.234   6.151  1.00  0.00    -0.166 F 
ENDBRANCH   3   8
BRANCH   2  12
ATOM     12  N   UNL     1      17.025   0.501   9.456  1.00  0.00    -0.308 N 
ATOM     13  C   UNL     1      18.000   0.769  10.429  1.00  0.00     0.323 C 
ATOM     14  H   UNL     1      17.264  -0.192   8.750  1.00  0.00     0.171 HD
ATOM     15  O   UNL     1      17.881   1.571  11.350  1.00  0.00    -0.248 OA
ATOM     16  N   UNL     1      19.149  -0.024  10.196  1.00  0.00    -0.308 N 
ATOM     17  H   UNL     1      19.104  -0.646   9.392  1.00  0.00     0.171 HD
BRANCH  16  18
ATOM     18  C   UNL     1      20.340  -0.069  10.922  1.00  0.00     0.046 A 
ATOM     19  C   UNL     1      20.326  -0.515  12.246  1.00  0.00     0.077 A 
ATOM     20  C   UNL     1      21.542   0.333  10.314  1.00  0.00     0.030 A 
ATOM     21  C   UNL     1      21.527  -0.542  12.925  1.00  0.00     0.174 A 
ATOM     22  C   UNL     1      22.746   0.294  11.023  1.00  0.00     0.053 A 
ATOM     23  O   UNL     1      21.706  -0.943  14.213  1.00  0.00    -0.395 OA
ATOM     24  C   UNL     1      22.705  -0.148  12.329  1.00  0.00     0.172 A 
ATOM     25  C   UNL     1      23.122  -0.752  14.348  1.00  0.00     0.586 C 
ATOM     26  O   UNL     1      23.772  -0.253  13.169  1.00  0.00    -0.395 OA
ATOM     27  F   UNL     1      23.689  -1.937  14.685  1.00  0.00    -0.125 F 
ATOM     28  F   UNL     1      23.348   0.114  15.366  1.00  0.00    -0.125 F 
ENDBRANCH  16  18
ENDBRANCH   2  12
TORSDOF 3
ENDMDL
MODEL 4
REMARK VINA RESULT:    -7.341      6.455      9.691
REMARK INTER + INTRA:          -8.950
REMARK INTER:                  -8.389
REMARK INTRA:                  -0.561
REMARK UNBOUND:                -0.322
REMARK SMILES O=C(Nc1ccc2c(c1)OC(F)(F)O2)Nc1ccc(Cl)c(C(F)(F)F)c1
REMARK SMILES IDX 20 1 16 2 21 3 26 4 17 5 19 6 18 7 22 8 23 9 24 10 25 11
REMARK SMILES IDX 15 12 2 13 1 15 3 16 4 18 9 19 5 20 8 21 6 22 10 23 7 24
REMARK SMILES IDX 11 25 14 26 12 27 13 28
REMARK H PARENT 15 14 3 17
REMARK Flexibility Score: inf
ROOT
ATOM      1  Cl  UNL     1      19.587  12.006  11.455  1.00  0.00    -0.084 Cl
ATOM      2  C   UNL     1      20.652   7.645  10.974  1.00  0.00     0.043 A 
ATOM      3  C   UNL     1      19.210   9.345  11.906  1.00  0.00     0.076 A 
ATOM      4  C   UNL     1      19.548   8.001  11.749  1.00  0.00     0.040 A 
ATOM      5  C   UNL     1      21.418   8.633  10.356  1.00  0.00     0.028 A 
ATOM      6  C   UNL     1      19.976  10.333  11.287  1.00  0.00     0.053 A 
ATOM      7  C   UNL     1      21.080   9.977  10.512  1.00  0.00     0.023 A 
ENDROOT
BRANCH   3   8
ATOM      8  C   UNL     1      18.019   9.685  12.742  1.00  0.00     0.417 C 
ATOM      9  F   UNL     1      18.356  10.362  13.877  1.00  0.00    -0.166 F 
ATOM     10  F   UNL     1      17.109  10.472  12.099  1.00  0.00    -0.166 F 
ATOM     11  F   UNL     1      17.318   8.592  13.159  1.00  0.00    -0.166 F 
ENDBRANCH   3   8
BRANCH   2  12
ATOM     12  N   UNL     1      20.996   6.282  10.817  1.00  0.00    -0.308 N 
ATOM     13  C   UNL     1      21.703   5.460  11.710  1.00  0.00     0.323 C 
ATOM     14  H   UNL     1      20.690   5.852   9.948  1.00  0.00     0.171 HD
ATOM     15  O   UNL     1      22.145   5.811  12.799  1.00  0.00    -0.248 OA
ATOM     16  N   UNL     1      21.835   4.158  11.169  1.00  0.00    -0.308 N 
ATOM     17  H   UNL     1      21.417   4.013  10.253  1.00  0.00     0.171 HD
BRANCH  16  18
ATOM     18  C   UNL     1      22.463   3.043  11.724  1.00  0.00     0.046 A 
ATOM     19  C   UNL     1      21.721   2.144  12.495  1.00  0.00     0.077 A 
ATOM     20  C   UNL     1      23.835   2.833  11.503  1.00  0.00     0.030 A 
ATOM     21  C   UNL     1      22.383   1.055  13.024  1.00  0.00     0.174 A 
ATOM     22  C   UNL     1      24.482   1.722  12.050  1.00  0.00     0.053 A 
ATOM     23  O   UNL     1      21.827   0.081  13.795  1.00  0.00    -0.395 OA
ATOM     24  C   UNL     1      23.728   0.850  12.806  1.00  0.00     0.172 A 
ATOM     25  C   UNL     1      22.976  -0.746  14.031  1.00  0.00     0.586 C 
ATOM     26  O   UNL     1      24.185  -0.280  13.414  1.00  0.00    -0.395 OA
ATOM     27  F   UNL     1      22.712  -1.996  13.574  1.00  0.00    -0.125 F 
ATOM     28  F   UNL     1      23.179  -0.836  15.369  1.00  0.00    -0.125 F 
ENDBRANCH  16  18
ENDBRANCH   2  12
TORSDOF 3
ENDMDL
MODEL 5
REMARK VINA RESULT:    -7.334      1.964      2.596
REMARK INTER + INTRA:          -8.942
REMARK INTER:                  -8.569
REMARK INTRA:                  -0.372
REMARK UNBOUND:                -0.322
REMARK SMILES O=C(Nc1ccc2c(c1)OC(F)(F)O2)Nc1ccc(Cl)c(C(F)(F)F)c1
REMARK SMILES IDX 20 1 16 2 21 3 26 4 17 5 19 6 18 7 22 8 23 9 24 10 25 11
REMARK SMILES IDX 15 12 2 13 1 15 3 16 4 18 9 19 5 20 8 21 6 22 10 23 7 24
REMARK SMILES IDX 11 25 14 26 12 27 13 28
REMARK H PARENT 15 14 3 17
REMARK Flexibility Score: inf
ROOT
ATOM      1  Cl  UNL     1      25.064  -3.456  13.304  1.00  0.00    -0.084 Cl
ATOM      2  C   UNL     1      21.950  -0.646  11.632  1.00  0.00     0.043 A 
ATOM      3  C   UNL     1      23.413  -1.291  13.443  1.00  0.00     0.076 A 
ATOM      4  C   UNL     1      22.452  -0.430  12.915  1.00  0.00     0.040 A 
ATOM      5  C   UNL     1      22.409  -1.723  10.876  1.00  0.00     0.028 A 
ATOM      6  C   UNL     1      23.873  -2.370  12.687  1.00  0.00     0.053 A 
ATOM      7  C   UNL     1      23.371  -2.586  11.403  1.00  0.00     0.023 A 
ENDROOT
BRANCH   3   8
ATOM      8  C   UNL     1      23.927  -1.025  14.821  1.00  0.00     0.417 C 
ATOM      9  F   UNL     1      23.335   0.060  15.397  1.00  0.00    -0.166 F 
ATOM     10  F   UNL     1      23.725  -2.060  15.687  1.00  0.00    -0.166 F 
ATOM     11  F   UNL     1      25.268  -0.778  14.862  1.00  0.00    -0.166 F 
ENDBRANCH   3   8
BRANCH   2  12
ATOM     12  N   UNL     1      20.973   0.228  11.098  1.00  0.00    -0.308 N 
ATOM     13  C   UNL     1      19.660  -0.079  10.707  1.00  0.00     0.323 C 
ATOM     14  H   UNL     1      21.267   1.195  10.988  1.00  0.00     0.171 HD
ATOM     15  O   UNL     1      19.142  -1.190  10.770  1.00  0.00    -0.248 OA
ATOM     16  N   UNL     1      19.014   1.084  10.224  1.00  0.00    -0.308 N 
ATOM     17  H   UNL     1      19.570   1.936  10.230  1.00  0.00     0.171 HD
BRANCH  16  18
ATOM     18  C   UNL     1      17.713   1.221   9.738  1.00  0.00     0.046 A 
ATOM     19  C   UNL     1      16.630   0.899  10.560  1.00  0.00     0.077 A 
ATOM     20  C   UNL     1      17.504   1.683   8.427  1.00  0.00     0.030 A 
ATOM     21  C   UNL     1      15.362   1.050  10.038  1.00  0.00     0.174 A 
ATOM     22  C   UNL     1      16.209   1.828   7.922  1.00  0.00     0.053 A 
ATOM     23  O   UNL     1      14.195   0.786  10.688  1.00  0.00    -0.395 OA
ATOM     24  C   UNL     1      15.158   1.503   8.753  1.00  0.00     0.172 A 
ATOM     25  C   UNL     1      13.249   1.124   9.663  1.00  0.00     0.586 C 
ATOM     26  O   UNL     1      13.836   1.580   8.435  1.00  0.00    -0.395 OA
ATOM     27  F   UNL     1      12.426   2.093  10.136  1.00  0.00    -0.125 F 
ATOM     28  F   UNL     1      12.487   0.034   9.400  1.00  0.00    -0.125 F 
ENDBRANCH  16  18
ENDBRANCH   2  12
TORSDOF 3
ENDMDL
MODEL 6
REMARK VINA RESULT:    -7.318      3.934      9.683
REMARK INTER + INTRA:          -8.923
REMARK INTER:                  -8.507
REMARK INTRA:                  -0.416
REMARK UNBOUND:                -0.322
REMARK SMILES O=C(Nc1ccc2c(c1)OC(F)(F)O2)Nc1ccc(Cl)c(C(F)(F)F)c1
REMARK SMILES IDX 20 1 16 2 21 3 26 4 17 5 19 6 18 7 22 8 23 9 24 10 25 11
REMARK SMILES IDX 15 12 2 13 1 15 3 16 4 18 9 19 5 20 8 21 6 22 10 23 7 24
REMARK SMILES IDX 11 25 14 26 12 27 13 28
REMARK H PARENT 15 14 3 17
REMARK Flexibility Score: inf
ROOT
ATOM      1  Cl  UNL     1      12.816   3.460   7.471  1.00  0.00    -0.084 Cl
ATOM      2  C   UNL     1      16.614   1.266   8.543  1.00  0.00     0.043 A 
ATOM      3  C   UNL     1      14.309   1.799   9.033  1.00  0.00     0.076 A 
ATOM      4  C   UNL     1      15.488   1.126   9.353  1.00  0.00     0.040 A 
ATOM      5  C   UNL     1      16.563   2.080   7.413  1.00  0.00     0.028 A 
ATOM      6  C   UNL     1      14.257   2.613   7.902  1.00  0.00     0.053 A 
ATOM      7  C   UNL     1      15.384   2.755   7.091  1.00  0.00     0.023 A 
ENDROOT
BRANCH   3   8
ATOM      8  C   UNL     1      13.124   1.621   9.925  1.00  0.00     0.417 C 
ATOM      9  F   UNL     1      13.450   1.044  11.117  1.00  0.00    -0.166 F 
ATOM     10  F   UNL     1      12.498   2.791  10.241  1.00  0.00    -0.166 F 
ATOM     11  F   UNL     1      12.153   0.828   9.386  1.00  0.00    -0.166 F 
ENDBRANCH   3   8
BRANCH   2  12
ATOM     12  N   UNL     1      17.811   0.585   8.870  1.00  0.00    -0.308 N 
ATOM     13  C   UNL     1      18.713   0.871   9.906  1.00  0.00     0.323 C 
ATOM     14  H   UNL     1      18.036  -0.209   8.275  1.00  0.00     0.171 HD
ATOM     15  O   UNL     1      18.599   1.788  10.714  1.00  0.00    -0.248 OA
ATOM     16  N   UNL     1      19.784  -0.055   9.885  1.00  0.00    -0.308 N 
ATOM     17  H   UNL     1      19.746  -0.762   9.155  1.00  0.00     0.171 HD
BRANCH  16  18
ATOM     18  C   UNL     1      20.889  -0.129  10.734  1.00  0.00     0.046 A 
ATOM     19  C   UNL     1      20.708  -0.464  12.078  1.00  0.00     0.077 A 
ATOM     20  C   UNL     1      22.175   0.132  10.228  1.00  0.00     0.030 A 
ATOM     21  C   UNL     1      21.829  -0.526  12.880  1.00  0.00     0.174 A 
ATOM     22  C   UNL     1      23.295   0.062  11.061  1.00  0.00     0.053 A 
ATOM     23  O   UNL     1      21.846  -0.833  14.206  1.00  0.00    -0.395 OA
ATOM     24  C   UNL     1      23.089  -0.270  12.384  1.00  0.00     0.172 A 
ATOM     25  C   UNL     1      23.252  -0.737  14.474  1.00  0.00     0.586 C 
ATOM     26  O   UNL     1      24.055  -0.385  13.337  1.00  0.00    -0.395 OA
ATOM     27  F   UNL     1      23.684  -1.930  14.955  1.00  0.00    -0.125 F 
ATOM     28  F   UNL     1      23.447   0.189  15.445  1.00  0.00    -0.125 F 
ENDBRANCH  16  18
ENDBRANCH   2  12
TORSDOF 3
ENDMDL
MODEL 7
REMARK VINA RESULT:    -7.309      2.908      4.169
REMARK INTER + INTRA:          -8.913
REMARK INTER:                  -8.392
REMARK INTRA:                  -0.521
REMARK UNBOUND:                -0.322
REMARK SMILES O=C(Nc1ccc2c(c1)OC(F)(F)O2)Nc1ccc(Cl)c(C(F)(F)F)c1
REMARK SMILES IDX 20 1 16 2 21 3 26 4 17 5 19 6 18 7 22 8 23 9 24 10 25 11
REMARK SMILES IDX 15 12 2 13 1 15 3 16 4 18 9 19 5 20 8 21 6 22 10 23 7 24
REMARK SMILES IDX 11 25 14 26 12 27 13 28
REMARK H PARENT 15 14 3 17
REMARK Flexibility Score: inf
ROOT
ATOM      1  Cl  UNL     1      24.183  -2.688  12.551  1.00  0.00    -0.084 Cl
ATOM      2  C   UNL     1      20.590  -1.134  10.302  1.00  0.00     0.043 A 
ATOM      3  C   UNL     1      22.139  -0.931  12.144  1.00  0.00     0.076 A 
ATOM      4  C   UNL     1      21.031  -0.461  11.440  1.00  0.00     0.040 A 
ATOM      5  C   UNL     1      21.257  -2.278   9.866  1.00  0.00     0.028 A 
ATOM      6  C   UNL     1      22.807  -2.076  11.709  1.00  0.00     0.053 A 
ATOM      7  C   UNL     1      22.365  -2.750  10.569  1.00  0.00     0.023 A 
ENDROOT
BRANCH   3   8
ATOM      8  C   UNL     1      22.582  -0.181  13.359  1.00  0.00     0.417 C 
ATOM      9  F   UNL     1      23.861   0.279  13.250  1.00  0.00    -0.166 F 
ATOM     10  F   UNL     1      21.817   0.915  13.631  1.00  0.00    -0.166 F 
ATOM     11  F   UNL     1      22.555  -0.930  14.499  1.00  0.00    -0.166 F 
ENDBRANCH   3   8
BRANCH   2  12
ATOM     12  N   UNL     1      19.464  -0.657   9.589  1.00  0.00    -0.308 N 
ATOM     13  C   UNL     1      18.114  -0.712   9.969  1.00  0.00     0.323 C 
ATOM     14  H   UNL     1      19.668  -0.223   8.692  1.00  0.00     0.171 HD
ATOM     15  O   UNL     1      17.689  -1.198  11.013  1.00  0.00    -0.248 OA
ATOM     16  N   UNL     1      17.305  -0.122   8.968  1.00  0.00    -0.308 N 
ATOM     17  H   UNL     1      17.797   0.240   8.155  1.00  0.00     0.171 HD
BRANCH  16  18
ATOM     18  C   UNL     1      15.918   0.031   8.945  1.00  0.00     0.046 A 
ATOM     19  C   UNL     1      15.358   1.296   9.144  1.00  0.00     0.077 A 
ATOM     20  C   UNL     1      15.098  -1.088   8.722  1.00  0.00     0.030 A 
ATOM     21  C   UNL     1      13.983   1.400   9.114  1.00  0.00     0.174 A 
ATOM     22  C   UNL     1      13.707  -0.956   8.695  1.00  0.00     0.053 A 
ATOM     23  O   UNL     1      13.265   2.543   9.286  1.00  0.00    -0.395 OA
ATOM     24  C   UNL     1      13.179   0.303   8.894  1.00  0.00     0.172 A 
ATOM     25  C   UNL     1      11.931   2.032   9.151  1.00  0.00     0.586 C 
ATOM     26  O   UNL     1      11.855   0.621   8.901  1.00  0.00    -0.395 OA
ATOM     27  F   UNL     1      11.318   2.686   8.133  1.00  0.00    -0.125 F 
ATOM     28  F   UNL     1      11.244   2.309  10.287  1.00  0.00    -0.125 F 
ENDBRANCH  16  18
ENDBRANCH   2  12
TORSDOF 3
ENDMDL
MODEL 8
REMARK VINA RESULT:    -7.287      3.972      9.606
REMARK INTER + INTRA:          -8.887
REMARK INTER:                  -8.575
REMARK INTRA:                  -0.312
REMARK UNBOUND:                -0.322
REMARK SMILES O=C(Nc1ccc2c(c1)OC(F)(F)O2)Nc1ccc(Cl)c(C(F)(F)F)c1
REMARK SMILES IDX 20 1 16 2 21 3 26 4 17 5 19 6 18 7 22 8 23 9 24 10 25 11
REMARK SMILES IDX 15 12 2 13 1 15 3 16 4 18 9 19 5 20 8 21 6 22 10 23 7 24
REMARK SMILES IDX 11 25 14 26 12 27 13 28
REMARK H PARENT 15 14 3 17
REMARK Flexibility Score: inf
ROOT
ATOM      1  Cl  UNL     1      15.577   1.453   7.833  1.00  0.00    -0.084 Cl
ATOM      2  C   UNL     1      18.738   1.335  11.055  1.00  0.00     0.043 A 
ATOM      3  C   UNL     1      18.093   1.877   8.791  1.00  0.00     0.076 A 
ATOM      4  C   UNL     1      19.060   1.836   9.794  1.00  0.00     0.040 A 
ATOM      5  C   UNL     1      17.447   0.874  11.313  1.00  0.00     0.028 A 
ATOM      6  C   UNL     1      16.802   1.416   9.048  1.00  0.00     0.053 A 
ATOM      7  C   UNL     1      16.478   0.915  10.309  1.00  0.00     0.023 A 
ENDROOT
BRANCH   3   8
ATOM      8  C   UNL     1      18.478   2.423   7.454  1.00  0.00     0.417 C 
ATOM      9  F   UNL     1      19.677   3.073   7.481  1.00  0.00    -0.166 F 
ATOM     10  F   UNL     1      18.599   1.466   6.489  1.00  0.00    -0.166 F 
ATOM     11  F   UNL     1      17.582   3.324   6.957  1.00  0.00    -0.166 F 
ENDBRANCH   3   8
BRANCH   2  12
ATOM     12  N   UNL     1      19.720   1.291  12.072  1.00  0.00    -0.308 N 
ATOM     13  C   UNL     1      20.876   0.496  12.125  1.00  0.00     0.323 C 
ATOM     14  H   UNL     1      19.561   1.916  12.858  1.00  0.00     0.171 HD
ATOM     15  O   UNL     1      21.222  -0.310  11.267  1.00  0.00    -0.248 OA
ATOM     16  N   UNL     1      21.590   0.758  13.318  1.00  0.00    -0.308 N 
ATOM     17  H   UNL     1      21.181   1.454  13.938  1.00  0.00     0.171 HD
BRANCH  16  18
ATOM     18  C   UNL     1      22.785   0.190  13.763  1.00  0.00     0.046 A 
ATOM     19  C   UNL     1      23.872   1.014  14.066  1.00  0.00     0.077 A 
ATOM     20  C   UNL     1      22.883  -1.206  13.901  1.00  0.00     0.030 A 
ATOM     21  C   UNL     1      25.032   0.408  14.502  1.00  0.00     0.174 A 
ATOM     22  C   UNL     1      24.070  -1.794  14.345  1.00  0.00     0.053 A 
ATOM     23  O   UNL     1      26.186   1.045  14.842  1.00  0.00    -0.395 OA
ATOM     24  C   UNL     1      25.128  -0.960  14.638  1.00  0.00     0.172 A 
ATOM     25  C   UNL     1      27.004  -0.078  15.200  1.00  0.00     0.586 C 
ATOM     26  O   UNL     1      26.355  -1.352  15.081  1.00  0.00    -0.395 OA
ATOM     27  F   UNL     1      27.417   0.079  16.483  1.00  0.00    -0.125 F 
ATOM     28  F   UNL     1      28.108  -0.079  14.413  1.00  0.00    -0.125 F 
ENDBRANCH  16  18
ENDBRANCH   2  12
TORSDOF 3
ENDMDL
MODEL 9
REMARK VINA RESULT:    -7.285      5.679      9.351
REMARK INTER + INTRA:          -8.885
REMARK INTER:                  -8.566
REMARK INTRA:                  -0.318
REMARK UNBOUND:                -0.322
REMARK SMILES O=C(Nc1ccc2c(c1)OC(F)(F)O2)Nc1ccc(Cl)c(C(F)(F)F)c1
REMARK SMILES IDX 20 1 16 2 21 3 26 4 17 5 19 6 18 7 22 8 23 9 24 10 25 11
REMARK SMILES IDX 15 12 2 13 1 15 3 16 4 18 9 19 5 20 8 21 6 22 10 23 7 24
REMARK SMILES IDX 11 25 14 26 12 27 13 28
REMARK H PARENT 15 14 3 17
REMARK Flexibility Score: inf
ROOT
ATOM      1  Cl  UNL     1      20.843  10.235  10.272  1.00  0.00    -0.084 Cl
ATOM      2  C   UNL     1      21.577   6.377  12.500  1.00  0.00     0.043 A 
ATOM      3  C   UNL     1      20.103   8.207  11.935  1.00  0.00     0.076 A 
ATOM      4  C   UNL     1      20.342   7.014  12.618  1.00  0.00     0.040 A 
ATOM      5  C   UNL     1      22.574   6.933  11.700  1.00  0.00     0.028 A 
ATOM      6  C   UNL     1      21.101   8.763  11.134  1.00  0.00     0.053 A 
ATOM      7  C   UNL     1      22.337   8.126  11.016  1.00  0.00     0.023 A 
ENDROOT
BRANCH   3   8
ATOM      8  C   UNL     1      18.766   8.857  12.086  1.00  0.00     0.417 C 
ATOM      9  F   UNL     1      17.893   8.095  12.805  1.00  0.00    -0.166 F 
ATOM     10  F   UNL     1      18.815  10.062  12.724  1.00  0.00    -0.166 F 
ATOM     11  F   UNL     1      18.145   9.105  10.896  1.00  0.00    -0.166 F 
ENDBRANCH   3   8
BRANCH   2  12
ATOM     12  N   UNL     1      21.819   5.169  13.195  1.00  0.00    -0.308 N 
ATOM     13  C   UNL     1      22.069   3.897  12.656  1.00  0.00     0.323 C 
ATOM     14  H   UNL     1      21.808   5.240  14.209  1.00  0.00     0.171 HD
ATOM     15  O   UNL     1      22.118   3.631  11.459  1.00  0.00    -0.248 OA
ATOM     16  N   UNL     1      22.259   2.958  13.698  1.00  0.00    -0.308 N 
ATOM     17  H   UNL     1      22.189   3.324  14.645  1.00  0.00     0.171 HD
BRANCH  16  18
ATOM     18  C   UNL     1      22.529   1.592  13.604  1.00  0.00     0.046 A 
ATOM     19  C   UNL     1      23.629   1.056  14.279  1.00  0.00     0.077 A 
ATOM     20  C   UNL     1      21.692   0.769  12.831  1.00  0.00     0.030 A 
ATOM     21  C   UNL     1      23.857  -0.299  14.156  1.00  0.00     0.174 A 
ATOM     22  C   UNL     1      21.945  -0.602  12.723  1.00  0.00     0.053 A 
ATOM     23  O   UNL     1      24.874  -0.992  14.738  1.00  0.00    -0.395 OA
ATOM     24  C   UNL     1      23.037  -1.106  13.399  1.00  0.00     0.172 A 
ATOM     25  C   UNL     1      24.592  -2.314  14.256  1.00  0.00     0.586 C 
ATOM     26  O   UNL     1      23.436  -2.408  13.411  1.00  0.00    -0.395 OA
ATOM     27  F   UNL     1      24.417  -3.136  15.321  1.00  0.00    -0.125 F 
ATOM     28  F   UNL     1      25.670  -2.763  13.567  1.00  0.00    -0.125 F 
ENDBRANCH  16  18
ENDBRANCH   2  12
TORSDOF 3
ENDMDL
MODEL 10
REMARK VINA RESULT:    -7.197      3.696      9.567
REMARK INTER + INTRA:          -8.781
REMARK INTER:                  -8.409
REMARK INTRA:                  -0.372
REMARK UNBOUND:                -0.322
REMARK SMILES O=C(Nc1ccc2c(c1)OC(F)(F)O2)Nc1ccc(Cl)c(C(F)(F)F)c1
REMARK SMILES IDX 20 1 16 2 21 3 26 4 17 5 19 6 18 7 22 8 23 9 24 10 25 11
REMARK SMILES IDX 15 12 2 13 1 15 3 16 4 18 9 19 5 20 8 21 6 22 10 23 7 24
REMARK SMILES IDX 11 25 14 26 12 27 13 28
REMARK H PARENT 15 14 3 17
REMARK Flexibility Score: inf
ROOT
ATOM      1  Cl  UNL     1      13.965   1.526   6.862  1.00  0.00    -0.084 Cl
ATOM      2  C   UNL     1      17.762   1.272   9.292  1.00  0.00     0.043 A 
ATOM      3  C   UNL     1      15.348   1.247   9.194  1.00  0.00     0.076 A 
ATOM      4  C   UNL     1      16.528   1.169   9.934  1.00  0.00     0.040 A 
ATOM      5  C   UNL     1      17.817   1.454   7.911  1.00  0.00     0.028 A 
ATOM      6  C   UNL     1      15.403   1.428   7.812  1.00  0.00     0.053 A 
ATOM      7  C   UNL     1      16.637   1.532   7.170  1.00  0.00     0.023 A 
ENDROOT
BRANCH   3   8
ATOM      8  C   UNL     1      14.046   1.130   9.918  1.00  0.00     0.417 C 
ATOM      9  F   UNL     1      14.211   0.930  11.257  1.00  0.00    -0.166 F 
ATOM     10  F   UNL     1      13.258   2.237   9.804  1.00  0.00    -0.166 F 
ATOM     11  F   UNL     1      13.275   0.092   9.483  1.00  0.00    -0.166 F 
ENDBRANCH   3   8
BRANCH   2  12
ATOM     12  N   UNL     1      18.959   1.196  10.043  1.00  0.00    -0.308 N 
ATOM     13  C   UNL     1      19.603   0.047  10.528  1.00  0.00     0.323 C 
ATOM     14  H   UNL     1      19.399   2.088  10.253  1.00  0.00     0.171 HD
ATOM     15  O   UNL     1      19.214  -1.106  10.368  1.00  0.00    -0.248 OA
ATOM     16  N   UNL     1      20.776   0.410  11.233  1.00  0.00    -0.308 N 
ATOM     17  H   UNL     1      20.973   1.407  11.284  1.00  0.00     0.171 HD
BRANCH  16  18
ATOM     18  C   UNL     1      21.702  -0.417  11.870  1.00  0.00     0.046 A 
ATOM     19  C   UNL     1      22.086  -0.141  13.185  1.00  0.00     0.077 A 
ATOM     20  C   UNL     1      22.239  -1.520  11.184  1.00  0.00     0.030 A 
ATOM     21  C   UNL     1      23.004  -0.985  13.775  1.00  0.00     0.174 A 
ATOM     22  C   UNL     1      23.167  -2.361  11.804  1.00  0.00     0.053 A 
ATOM     23  O   UNL     1      23.493  -0.874  15.040  1.00  0.00    -0.395 OA
ATOM     24  C   UNL     1      23.530  -2.066  13.102  1.00  0.00     0.172 A 
ATOM     25  C   UNL     1      24.379  -2.002  15.074  1.00  0.00     0.586 C 
ATOM     26  O   UNL     1      24.415  -2.769  13.862  1.00  0.00    -0.395 OA
ATOM     27  F   UNL     1      24.002  -2.818  16.091  1.00  0.00    -0.125 F 
ATOM     28  F   UNL     1      25.632  -1.562  15.346  1.00  0.00    -0.125 F 
ENDBRANCH  16  18
ENDBRANCH   2  12
TORSDOF 3
ENDMDL
MODEL 11
REMARK VINA RESULT:    -7.189      2.207      2.844
REMARK INTER + INTRA:          -8.772
REMARK INTER:                  -8.216
REMARK INTRA:                  -0.555
REMARK UNBOUND:                -0.322
REMARK SMILES O=C(Nc1ccc2c(c1)OC(F)(F)O2)Nc1ccc(Cl)c(C(F)(F)F)c1
REMARK SMILES IDX 20 1 16 2 21 3 26 4 17 5 19 6 18 7 22 8 23 9 24 10 25 11
REMARK SMILES IDX 15 12 2 13 1 15 3 16 4 18 9 19 5 20 8 21 6 22 10 23 7 24
REMARK SMILES IDX 11 25 14 26 12 27 13 28
REMARK H PARENT 15 14 3 17
REMARK Flexibility Score: inf
ROOT
ATOM      1  Cl  UNL     1      28.310  -2.450  14.203  1.00  0.00    -0.084 Cl
ATOM      2  C   UNL     1      23.927  -1.476  13.731  1.00  0.00     0.043 A 
ATOM      3  C   UNL     1      26.131  -0.839  14.488  1.00  0.00     0.076 A 
ATOM      4  C   UNL     1      24.775  -0.549  14.336  1.00  0.00     0.040 A 
ATOM      5  C   UNL     1      24.434  -2.694  13.279  1.00  0.00     0.028 A 
ATOM      6  C   UNL     1      26.639  -2.057  14.036  1.00  0.00     0.053 A 
ATOM      7  C   UNL     1      25.790  -2.985  13.431  1.00  0.00     0.023 A 
ENDROOT
BRANCH   3   8
ATOM      8  C   UNL     1      27.007   0.182  15.139  1.00  0.00     0.417 C 
ATOM      9  F   UNL     1      26.325   1.311  15.483  1.00  0.00    -0.166 F 
ATOM     10  F   UNL     1      27.596  -0.259  16.288  1.00  0.00    -0.166 F 
ATOM     11  F   UNL     1      28.036   0.600  14.346  1.00  0.00    -0.166 F 
ENDBRANCH   3   8
BRANCH   2  12
ATOM     12  N   UNL     1      22.551  -1.183  13.579  1.00  0.00    -0.308 N 
ATOM     13  C   UNL     1      21.893  -0.688  12.442  1.00  0.00     0.323 C 
ATOM     14  H   UNL     1      21.976  -1.355  14.400  1.00  0.00     0.171 HD
ATOM     15  O   UNL     1      22.430  -0.426  11.370  1.00  0.00    -0.248 OA
ATOM     16  N   UNL     1      20.512  -0.533  12.710  1.00  0.00    -0.308 N 
ATOM     17  H   UNL     1      20.209  -0.791  13.647  1.00  0.00     0.171 HD
BRANCH  16  18
ATOM     18  C   UNL     1      19.505  -0.072  11.862  1.00  0.00     0.046 A 
ATOM     19  C   UNL     1      18.582  -0.976  11.329  1.00  0.00     0.077 A 
ATOM     20  C   UNL     1      19.427   1.296  11.552  1.00  0.00     0.030 A 
ATOM     21  C   UNL     1      17.603  -0.476  10.495  1.00  0.00     0.174 A 
ATOM     22  C   UNL     1      18.426   1.778  10.704  1.00  0.00     0.053 A 
ATOM     23  O   UNL     1      16.626  -1.202   9.887  1.00  0.00    -0.395 OA
ATOM     24  C   UNL     1      17.528   0.866  10.191  1.00  0.00     0.172 A 
ATOM     25  C   UNL     1      15.940  -0.163   9.174  1.00  0.00     0.586 C 
ATOM     26  O   UNL     1      16.492   1.150   9.354  1.00  0.00    -0.395 OA
ATOM     27  F   UNL     1      14.643  -0.145   9.574  1.00  0.00    -0.125 F 
ATOM     28  F   UNL     1      15.955  -0.461   7.851  1.00  0.00    -0.125 F 
ENDBRANCH  16  18
ENDBRANCH   2  12
TORSDOF 3
ENDMDL
MODEL 12
REMARK VINA RESULT:    -7.161      2.543      3.722
REMARK INTER + INTRA:          -8.739
REMARK INTER:                  -8.204
REMARK INTRA:                  -0.535
REMARK UNBOUND:                -0.322
REMARK SMILES O=C(Nc1ccc2c(c1)OC(F)(F)O2)Nc1ccc(Cl)c(C(F)(F)F)c1
REMARK SMILES IDX 20 1 16 2 21 3 26 4 17 5 19 6 18 7 22 8 23 9 24 10 25 11
REMARK SMILES IDX 15 12 2 13 1 15 3 16 4 18 9 19 5 20 8 21 6 22 10 23 7 24
REMARK SMILES IDX 11 25 14 26 12 27 13 28
REMARK H PARENT 15 14 3 17
REMARK Flexibility Score: inf
ROOT
ATOM      1  Cl  UNL     1      23.656   1.454  14.302  1.00  0.00    -0.084 Cl
ATOM      2  C   UNL     1      20.286   0.994  11.333  1.00  0.00     0.043 A 
ATOM      3  C   UNL     1      22.095   0.011  12.596  1.00  0.00     0.076 A 
ATOM      4  C   UNL     1      21.051  -0.118  11.681  1.00  0.00     0.040 A 
ATOM      5  C   UNL     1      20.564   2.237  11.900  1.00  0.00     0.028 A 
ATOM      6  C   UNL     1      22.374   1.254  13.164  1.00  0.00     0.053 A 
ATOM      7  C   UNL     1      21.609   2.368  12.816  1.00  0.00     0.023 A 
ENDROOT
BRANCH   3   8
ATOM      8  C   UNL     1      22.891  -1.205  12.944  1.00  0.00     0.417 C 
ATOM      9  F   UNL     1      22.522  -2.296  12.213  1.00  0.00    -0.166 F 
ATOM     10  F   UNL     1      24.231  -1.057  12.737  1.00  0.00    -0.166 F 
ATOM     11  F   UNL     1      22.768  -1.579  14.251  1.00  0.00    -0.166 F 
ENDBRANCH   3   8
BRANCH   2  12
ATOM     12  N   UNL     1      19.228   0.862  10.402  1.00  0.00    -0.308 N 
ATOM     13  C   UNL     1      17.847   0.895  10.653  1.00  0.00     0.323 C 
ATOM     14  H   UNL     1      19.513   0.728   9.435  1.00  0.00     0.171 HD
ATOM     15  O   UNL     1      17.329   1.048  11.755  1.00  0.00    -0.248 OA
ATOM     16  N   UNL     1      17.131   0.724   9.443  1.00  0.00    -0.308 N 
ATOM     17  H   UNL     1      17.696   0.608   8.605  1.00  0.00     0.171 HD
BRANCH  16  18
ATOM     18  C   UNL     1      15.751   0.694   9.244  1.00  0.00     0.046 A 
ATOM     19  C   UNL     1      15.038   1.893   9.152  1.00  0.00     0.077 A 
ATOM     20  C   UNL     1      15.089  -0.542   9.136  1.00  0.00     0.030 A 
ATOM     21  C   UNL     1      13.675   1.815   8.955  1.00  0.00     0.174 A 
ATOM     22  C   UNL     1      13.707  -0.594   8.936  1.00  0.00     0.053 A 
ATOM     23  O   UNL     1      12.823   2.870   8.842  1.00  0.00    -0.395 OA
ATOM     24  C   UNL     1      13.027   0.603   8.849  1.00  0.00     0.172 A 
ATOM     25  C   UNL     1      11.580   2.178   8.657  1.00  0.00     0.586 C 
ATOM     26  O   UNL     1      11.687   0.747   8.656  1.00  0.00    -0.395 OA
ATOM     27  F   UNL     1      11.036   2.572   7.478  1.00  0.00    -0.125 F 
ATOM     28  F   UNL     1      10.727   2.548   9.644  1.00  0.00    -0.125 F 
ENDBRANCH  16  18
ENDBRANCH   2  12
TORSDOF 3
ENDMDL
MODEL 13
REMARK VINA RESULT:    -7.121      3.889      9.970
REMARK INTER + INTRA:          -8.692
REMARK INTER:                  -8.276
REMARK INTRA:                  -0.416
REMARK UNBOUND:                -0.322
REMARK SMILES O=C(Nc1ccc2c(c1)OC(F)(F)O2)Nc1ccc(Cl)c(C(F)(F)F)c1
REMARK SMILES IDX 20 1 16 2 21 3 26 4 17 5 19 6 18 7 22 8 23 9 24 10 25 11
REMARK SMILES IDX 15 12 2 13 1 15 3 16 4 18 9 19 5 20 8 21 6 22 10 23 7 24
REMARK SMILES IDX 11 25 14 26 12 27 13 28
REMARK H PARENT 15 14 3 17
REMARK Flexibility Score: inf
ROOT
ATOM      1  Cl  UNL     1      11.962  -1.249   8.012  1.00  0.00    -0.084 Cl
ATOM      2  C   UNL     1      16.112   0.145   9.118  1.00  0.00     0.043 A 
ATOM      3  C   UNL     1      13.790   0.657   8.688  1.00  0.00     0.076 A 
ATOM      4  C   UNL     1      15.076   1.074   9.030  1.00  0.00     0.040 A 
ATOM      5  C   UNL     1      15.862  -1.204   8.864  1.00  0.00     0.028 A 
ATOM      6  C   UNL     1      13.540  -0.692   8.435  1.00  0.00     0.053 A 
ATOM      7  C   UNL     1      14.576  -1.623   8.523  1.00  0.00     0.023 A 
ENDROOT
BRANCH   3   8
ATOM      8  C   UNL     1      12.707   1.683   8.606  1.00  0.00     0.417 C 
ATOM      9  F   UNL     1      13.175   2.951   8.789  1.00  0.00    -0.166 F 
ATOM     10  F   UNL     1      12.061   1.698   7.405  1.00  0.00    -0.166 F 
ATOM     11  F   UNL     1      11.727   1.514   9.540  1.00  0.00    -0.166 F 
ENDBRANCH   3   8
BRANCH   2  12
ATOM     12  N   UNL     1      17.417   0.570   9.462  1.00  0.00    -0.308 N 
ATOM     13  C   UNL     1      18.101   0.369  10.671  1.00  0.00     0.323 C 
ATOM     14  H   UNL     1      17.913   1.083   8.737  1.00  0.00     0.171 HD
ATOM     15  O   UNL     1      17.656  -0.225  11.648  1.00  0.00    -0.248 OA
ATOM     16  N   UNL     1      19.387   0.957  10.603  1.00  0.00    -0.308 N 
ATOM     17  H   UNL     1      19.620   1.418   9.727  1.00  0.00     0.171 HD
BRANCH  16  18
ATOM     18  C   UNL     1      20.384   0.988  11.579  1.00  0.00     0.046 A 
ATOM     19  C   UNL     1      20.873  -0.209  12.108  1.00  0.00     0.077 A 
ATOM     20  C   UNL     1      20.887   2.224  12.022  1.00  0.00     0.030 A 
ATOM     21  C   UNL     1      21.858  -0.130  13.070  1.00  0.00     0.174 A 
ATOM     22  C   UNL     1      21.886   2.278  12.998  1.00  0.00     0.053 A 
ATOM     23  O   UNL     1      22.451  -1.184  13.694  1.00  0.00    -0.395 OA
ATOM     24  C   UNL     1      22.351   1.082  13.503  1.00  0.00     0.172 A 
ATOM     25  C   UNL     1      23.362  -0.491  14.560  1.00  0.00     0.586 C 
ATOM     26  O   UNL     1      23.316   0.939  14.454  1.00  0.00    -0.395 OA
ATOM     27  F   UNL     1      24.623  -0.906  14.283  1.00  0.00    -0.125 F 
ATOM     28  F   UNL     1      23.090  -0.839  15.842  1.00  0.00    -0.125 F 
ENDBRANCH  16  18
ENDBRANCH   2  12
TORSDOF 3
ENDMDL
MODEL 14
REMARK VINA RESULT:    -7.101      4.005      9.670
REMARK INTER + INTRA:          -8.668
REMARK INTER:                  -8.104
REMARK INTRA:                  -0.564
REMARK UNBOUND:                -0.322
REMARK SMILES O=C(Nc1ccc2c(c1)OC(F)(F)O2)Nc1ccc(Cl)c(C(F)(F)F)c1
REMARK SMILES IDX 20 1 16 2 21 3 26 4 17 5 19 6 18 7 22 8 23 9 24 10 25 11
REMARK SMILES IDX 15 12 2 13 1 15 3 16 4 18 9 19 5 20 8 21 6 22 10 23 7 24
REMARK SMILES IDX 11 25 14 26 12 27 13 28
REMARK H PARENT 15 14 3 17
REMARK Flexibility Score: inf
ROOT
ATOM      1  Cl  UNL     1      16.517   0.930   9.395  1.00  0.00    -0.084 Cl
ATOM      2  C   UNL     1      19.950  -0.195  12.105  1.00  0.00     0.043 A 
ATOM      3  C   UNL     1      18.311  -0.832  10.447  1.00  0.00     0.076 A 
ATOM      4  C   UNL     1      19.372  -1.167  11.288  1.00  0.00     0.040 A 
ATOM      5  C   UNL     1      19.466   1.113  12.081  1.00  0.00     0.028 A 
ATOM      6  C   UNL     1      17.827   0.476  10.423  1.00  0.00     0.053 A 
ATOM      7  C   UNL     1      18.404   1.449  11.240  1.00  0.00     0.023 A 
ENDROOT
BRANCH   3   8
ATOM      8  C   UNL     1      17.721  -1.902   9.587  1.00  0.00     0.417 C 
ATOM      9  F   UNL     1      16.391  -2.088   9.825  1.00  0.00    -0.166 F 
ATOM     10  F   UNL     1      17.824  -1.645   8.251  1.00  0.00    -0.166 F 
ATOM     11  F   UNL     1      18.302  -3.124   9.764  1.00  0.00    -0.166 F 
ENDBRANCH   3   8
BRANCH   2  12
ATOM     12  N   UNL     1      21.025  -0.536  12.959  1.00  0.00    -0.308 N 
ATOM     13  C   UNL     1      22.383  -0.667  12.629  1.00  0.00     0.323 C 
ATOM     14  H   UNL     1      20.773  -0.704  13.930  1.00  0.00     0.171 HD
ATOM     15  O   UNL     1      22.861  -0.502  11.512  1.00  0.00    -0.248 OA
ATOM     16  N   UNL     1      23.128  -1.023  13.779  1.00  0.00    -0.308 N 
ATOM     17  H   UNL     1      22.595  -1.127  14.640  1.00  0.00     0.171 HD
BRANCH  16  18
ATOM     18  C   UNL     1      24.500  -1.251  13.893  1.00  0.00     0.046 A 
ATOM     19  C   UNL     1      25.023  -2.502  13.556  1.00  0.00     0.077 A 
ATOM     20  C   UNL     1      25.342  -0.221  14.345  1.00  0.00     0.030 A 
ATOM     21  C   UNL     1      26.385  -2.683  13.684  1.00  0.00     0.174 A 
ATOM     22  C   UNL     1      26.719  -0.429  14.466  1.00  0.00     0.053 A 
ATOM     23  O   UNL     1      27.068  -3.826  13.404  1.00  0.00    -0.395 OA
ATOM     24  C   UNL     1      27.211  -1.672  14.127  1.00  0.00     0.172 A 
ATOM     25  C   UNL     1      28.404  -3.412  13.725  1.00  0.00     0.586 C 
ATOM     26  O   UNL     1      28.516  -2.056  14.181  1.00  0.00    -0.395 OA
ATOM     27  F   UNL     1      29.181  -3.563  12.622  1.00  0.00    -0.125 F 
ATOM     28  F   UNL     1      28.894  -4.234  14.685  1.00  0.00    -0.125 F 
ENDBRANCH  16  18
ENDBRANCH   2  12
TORSDOF 3
ENDMDL
MODEL 15
REMARK VINA RESULT:    -7.037      3.604      9.624
REMARK INTER + INTRA:          -8.593
REMARK INTER:                  -8.277
REMARK INTRA:                  -0.316
REMARK UNBOUND:                -0.322
REMARK SMILES O=C(Nc1ccc2c(c1)OC(F)(F)O2)Nc1ccc(Cl)c(C(F)(F)F)c1
REMARK SMILES IDX 20 1 16 2 21 3 26 4 17 5 19 6 18 7 22 8 23 9 24 10 25 11
REMARK SMILES IDX 15 12 2 13 1 15 3 16 4 18 9 19 5 20 8 21 6 22 10 23 7 24
REMARK SMILES IDX 11 25 14 26 12 27 13 28
REMARK H PARENT 15 14 3 17
REMARK Flexibility Score: inf
ROOT
ATOM      1  Cl  UNL     1      16.264   1.938   7.127  1.00  0.00    -0.084 Cl
ATOM      2  C   UNL     1      19.026   1.510  10.673  1.00  0.00     0.043 A 
ATOM      3  C   UNL     1      16.820   1.288   9.715  1.00  0.00     0.076 A 
ATOM      4  C   UNL     1      17.683   1.160  10.803  1.00  0.00     0.040 A 
ATOM      5  C   UNL     1      19.508   1.988   9.455  1.00  0.00     0.028 A 
ATOM      6  C   UNL     1      17.300   1.767   8.496  1.00  0.00     0.053 A 
ATOM      7  C   UNL     1      18.645   2.118   8.366  1.00  0.00     0.023 A 
ENDROOT
BRANCH   3   8
ATOM      8  C   UNL     1      15.387   0.901   9.894  1.00  0.00     0.417 C 
ATOM      9  F   UNL     1      15.089  -0.285   9.291  1.00  0.00    -0.166 F 
ATOM     10  F   UNL     1      15.021   0.754  11.200  1.00  0.00    -0.166 F 
ATOM     11  F   UNL     1      14.511   1.809   9.375  1.00  0.00    -0.166 F 
ENDBRANCH   3   8
BRANCH   2  12
ATOM     12  N   UNL     1      19.901   1.381  11.778  1.00  0.00    -0.308 N 
ATOM     13  C   UNL     1      21.074   0.616  11.867  1.00  0.00     0.323 C 
ATOM     14  H   UNL     1      19.640   1.912  12.604  1.00  0.00     0.171 HD
ATOM     15  O   UNL     1      21.536  -0.083  10.970  1.00  0.00    -0.248 OA
ATOM     16  N   UNL     1      21.654   0.765  13.150  1.00  0.00    -0.308 N 
ATOM     17  H   UNL     1      21.158   1.378  13.793  1.00  0.00     0.171 HD
BRANCH  16  18
ATOM     18  C   UNL     1      22.817   0.182  13.655  1.00  0.00     0.046 A 
ATOM     19  C   UNL     1      23.945   0.976  13.883  1.00  0.00     0.077 A 
ATOM     20  C   UNL     1      22.844  -1.196  13.929  1.00  0.00     0.030 A 
ATOM     21  C   UNL     1      25.072   0.358  14.383  1.00  0.00     0.174 A 
ATOM     22  C   UNL     1      23.999  -1.798  14.436  1.00  0.00     0.053 A 
ATOM     23  O   UNL     1      26.256   0.966  14.666  1.00  0.00    -0.395 OA
ATOM     24  C   UNL     1      25.098  -0.993  14.652  1.00  0.00     0.172 A 
ATOM     25  C   UNL     1      27.016  -0.157  15.137  1.00  0.00     0.586 C 
ATOM     26  O   UNL     1      26.303  -1.402  15.138  1.00  0.00    -0.395 OA
ATOM     27  F   UNL     1      27.435   0.103  16.401  1.00  0.00    -0.125 F 
ATOM     28  F   UNL     1      28.119  -0.290  14.361  1.00  0.00    -0.125 F 
ENDBRANCH  16  18
ENDBRANCH   2  12
TORSDOF 3
ENDMDL
MODEL 16
REMARK VINA RESULT:    -6.962      2.245      3.116
REMARK INTER + INTRA:          -8.505
REMARK INTER:                  -8.081
REMARK INTRA:                  -0.425
REMARK UNBOUND:                -0.322
REMARK SMILES O=C(Nc1ccc2c(c1)OC(F)(F)O2)Nc1ccc(Cl)c(C(F)(F)F)c1
REMARK SMILES IDX 20 1 16 2 21 3 26 4 17 5 19 6 18 7 22 8 23 9 24 10 25 11
REMARK SMILES IDX 15 12 2 13 1 15 3 16 4 18 9 19 5 20 8 21 6 22 10 23 7 24
REMARK SMILES IDX 11 25 14 26 12 27 13 28
REMARK H PARENT 15 14 3 17
REMARK Flexibility Score: inf
ROOT
ATOM      1  Cl  UNL     1      29.931  -1.009  14.721  1.00  0.00    -0.084 Cl
ATOM      2  C   UNL     1      25.474  -0.377  14.367  1.00  0.00     0.043 A 
ATOM      3  C   UNL     1      27.421  -1.746  13.954  1.00  0.00     0.076 A 
ATOM      4  C   UNL     1      26.046  -1.540  13.852  1.00  0.00     0.040 A 
ATOM      5  C   UNL     1      26.278   0.581  14.985  1.00  0.00     0.028 A 
ATOM      6  C   UNL     1      28.226  -0.789  14.572  1.00  0.00     0.053 A 
ATOM      7  C   UNL     1      27.654   0.375  15.088  1.00  0.00     0.023 A 
ENDROOT
BRANCH   3   8
ATOM      8  C   UNL     1      27.995  -3.006  13.391  1.00  0.00     0.417 C 
ATOM      9  F   UNL     1      27.036  -3.841  12.899  1.00  0.00    -0.166 F 
ATOM     10  F   UNL     1      28.866  -2.796  12.363  1.00  0.00    -0.166 F 
ATOM     11  F   UNL     1      28.690  -3.743  14.306  1.00  0.00    -0.166 F 
ENDBRANCH   3   8
BRANCH   2  12
ATOM     12  N   UNL     1      24.079  -0.167  14.261  1.00  0.00    -0.308 N 
ATOM     13  C   UNL     1      23.348   0.229  13.130  1.00  0.00     0.323 C 
ATOM     14  H   UNL     1      23.549  -0.325  15.114  1.00  0.00     0.171 HD
ATOM     15  O   UNL     1      23.824   0.462  12.023  1.00  0.00    -0.248 OA
ATOM     16  N   UNL     1      21.972   0.324  13.451  1.00  0.00    -0.308 N 
ATOM     17  H   UNL     1      21.724   0.101  14.412  1.00  0.00     0.171 HD
BRANCH  16  18
ATOM     18  C   UNL     1      20.906   0.683  12.625  1.00  0.00     0.046 A 
ATOM     19  C   UNL     1      19.832  -0.196  12.461  1.00  0.00     0.077 A 
ATOM     20  C   UNL     1      20.923   1.924  11.966  1.00  0.00     0.030 A 
ATOM     21  C   UNL     1      18.800   0.201  11.635  1.00  0.00     0.174 A 
ATOM     22  C   UNL     1      19.865   2.303  11.135  1.00  0.00     0.053 A 
ATOM     23  O   UNL     1      17.679  -0.519  11.357  1.00  0.00    -0.395 OA
ATOM     24  C   UNL     1      18.817   1.418  10.990  1.00  0.00     0.172 A 
ATOM     25  C   UNL     1      17.007   0.386  10.469  1.00  0.00     0.586 C 
ATOM     26  O   UNL     1      17.707   1.615  10.226  1.00  0.00    -0.395 OA
ATOM     27  F   UNL     1      15.788   0.678  10.989  1.00  0.00    -0.125 F 
ATOM     28  F   UNL     1      16.805  -0.240   9.283  1.00  0.00    -0.125 F 
ENDBRANCH  16  18
ENDBRANCH   2  12
TORSDOF 3
ENDMDL
MODEL 17
REMARK VINA RESULT:    -6.883      2.903      3.832
REMARK INTER + INTRA:          -8.412
REMARK INTER:                  -8.063
REMARK INTRA:                  -0.348
REMARK UNBOUND:                -0.322
REMARK SMILES O=C(Nc1ccc2c(c1)OC(F)(F)O2)Nc1ccc(Cl)c(C(F)(F)F)c1
REMARK SMILES IDX 20 1 16 2 21 3 26 4 17 5 19 6 18 7 22 8 23 9 24 10 25 11
REMARK SMILES IDX 15 12 2 13 1 15 3 16 4 18 9 19 5 20 8 21 6 22 10 23 7 24
REMARK SMILES IDX 11 25 14 26 12 27 13 28
REMARK H PARENT 15 14 3 17
REMARK Flexibility Score: inf
ROOT
ATOM      1  Cl  UNL     1      30.068  -0.957  14.785  1.00  0.00    -0.084 Cl
ATOM      2  C   UNL     1      25.590  -0.520  14.397  1.00  0.00     0.043 A 
ATOM      3  C   UNL     1      27.686   0.260  15.312  1.00  0.00     0.076 A 
ATOM      4  C   UNL     1      26.303   0.385  15.183  1.00  0.00     0.040 A 
ATOM      5  C   UNL     1      26.260  -1.550  13.739  1.00  0.00     0.028 A 
ATOM      6  C   UNL     1      28.357  -0.771  14.653  1.00  0.00     0.053 A 
ATOM      7  C   UNL     1      27.644  -1.676  13.866  1.00  0.00     0.023 A 
ENDROOT
BRANCH   3   8
ATOM      8  C   UNL     1      28.414   1.250  16.162  1.00  0.00     0.417 C 
ATOM      9  F   UNL     1      27.602   2.252  16.606  1.00  0.00    -0.166 F 
ATOM     10  F   UNL     1      28.971   0.703  17.281  1.00  0.00    -0.166 F 
ATOM     11  F   UNL     1      29.443   1.870  15.514  1.00  0.00    -0.166 F 
ENDBRANCH   3   8
BRANCH   2  12
ATOM     12  N   UNL     1      24.187  -0.394  14.269  1.00  0.00    -0.308 N 
ATOM     13  C   UNL     1      23.463   0.179  13.212  1.00  0.00     0.323 C 
ATOM     14  H   UNL     1      23.644  -0.767  15.044  1.00  0.00     0.171 HD
ATOM     15  O   UNL     1      23.954   0.674  12.202  1.00  0.00    -0.248 OA
ATOM     16  N   UNL     1      22.075   0.103  13.478  1.00  0.00    -0.308 N 
ATOM     17  H   UNL     1      21.814  -0.335  14.358  1.00  0.00     0.171 HD
BRANCH  16  18
ATOM     18  C   UNL     1      21.011   0.551  12.694  1.00  0.00     0.046 A 
ATOM     19  C   UNL     1      19.928  -0.298  12.447  1.00  0.00     0.077 A 
ATOM     20  C   UNL     1      21.037   1.851  12.160  1.00  0.00     0.030 A 
ATOM     21  C   UNL     1      18.899   0.187  11.667  1.00  0.00     0.174 A 
ATOM     22  C   UNL     1      19.981   2.319  11.373  1.00  0.00     0.053 A 
ATOM     23  O   UNL     1      17.771  -0.492  11.323  1.00  0.00    -0.395 OA
ATOM     24  C   UNL     1      18.925   1.461  11.144  1.00  0.00     0.172 A 
ATOM     25  C   UNL     1      17.105   0.501  10.529  1.00  0.00     0.586 C 
ATOM     26  O   UNL     1      17.815   1.742  10.406  1.00  0.00    -0.395 OA
ATOM     27  F   UNL     1      15.890   0.751  11.079  1.00  0.00    -0.125 F 
ATOM     28  F   UNL     1      16.896  -0.004   9.288  1.00  0.00    -0.125 F 
ENDBRANCH  16  18
ENDBRANCH   2  12
TORSDOF 3
ENDMDL
MODEL 18
REMARK VINA RESULT:    -6.773      1.658      2.010
REMARK INTER + INTRA:          -8.283
REMARK INTER:                  -7.961
REMARK INTRA:                  -0.322
REMARK UNBOUND:                -0.322
REMARK SMILES O=C(Nc1ccc2c(c1)OC(F)(F)O2)Nc1ccc(Cl)c(C(F)(F)F)c1
REMARK SMILES IDX 20 1 16 2 21 3 26 4 17 5 19 6 18 7 22 8 23 9 24 10 25 11
REMARK SMILES IDX 15 12 2 13 1 15 3 16 4 18 9 19 5 20 8 21 6 22 10 23 7 24
REMARK SMILES IDX 11 25 14 26 12 27 13 28
REMARK H PARENT 15 14 3 17
REMARK Flexibility Score: inf
ROOT
ATOM      1  Cl  UNL     1      28.486   1.991  15.235  1.00  0.00    -0.084 Cl
ATOM      2  C   UNL     1      24.168   2.448  13.999  1.00  0.00     0.043 A 
ATOM      3  C   UNL     1      26.001   1.024  14.668  1.00  0.00     0.076 A 
ATOM      4  C   UNL     1      24.669   1.178  14.286  1.00  0.00     0.040 A 
ATOM      5  C   UNL     1      24.998   3.564  14.094  1.00  0.00     0.028 A 
ATOM      6  C   UNL     1      26.833   2.140  14.763  1.00  0.00     0.053 A 
ATOM      7  C   UNL     1      26.331   3.411  14.476  1.00  0.00     0.023 A 
ENDROOT
BRANCH   3   8
ATOM      8  C   UNL     1      26.501  -0.352  14.968  1.00  0.00     0.417 C 
ATOM      9  F   UNL     1      27.362  -0.813  14.017  1.00  0.00    -0.166 F 
ATOM     10  F   UNL     1      27.174  -0.441  16.151  1.00  0.00    -0.166 F 
ATOM     11  F   UNL     1      25.508  -1.284  15.048  1.00  0.00    -0.166 F 
ENDBRANCH   3   8
BRANCH   2  12
ATOM     12  N   UNL     1      22.816   2.603  13.609  1.00  0.00    -0.308 N 
ATOM     13  C   UNL     1      22.162   2.028  12.509  1.00  0.00     0.323 C 
ATOM     14  H   UNL     1      22.258   3.208  14.207  1.00  0.00     0.171 HD
ATOM     15  O   UNL     1      22.680   1.277  11.688  1.00  0.00    -0.248 OA
ATOM     16  N   UNL     1      20.808   2.442  12.479  1.00  0.00    -0.308 N 
ATOM     17  H   UNL     1      20.519   3.068  13.226  1.00  0.00     0.171 HD
BRANCH  16  18
ATOM     18  C   UNL     1      19.814   2.106  11.560  1.00  0.00     0.046 A 
ATOM     19  C   UNL     1      18.680   1.411  11.990  1.00  0.00     0.077 A 
ATOM     20  C   UNL     1      19.961   2.470  10.210  1.00  0.00     0.030 A 
ATOM     21  C   UNL     1      17.723   1.101  11.047  1.00  0.00     0.174 A 
ATOM     22  C   UNL     1      18.976   2.144   9.274  1.00  0.00     0.053 A 
ATOM     23  O   UNL     1      16.560   0.432  11.280  1.00  0.00    -0.395 OA
ATOM     24  C   UNL     1      17.867   1.458   9.724  1.00  0.00     0.172 A 
ATOM     25  C   UNL     1      16.004   0.414   9.957  1.00  0.00     0.586 C 
ATOM     26  O   UNL     1      16.812   1.058   8.961  1.00  0.00    -0.395 OA
ATOM     27  F   UNL     1      14.791   1.021   9.989  1.00  0.00    -0.125 F 
ATOM     28  F   UNL     1      15.807  -0.875   9.588  1.00  0.00    -0.125 F 
ENDBRANCH  16  18
ENDBRANCH   2  12
TORSDOF 3
ENDMDL
MODEL 19
REMARK VINA RESULT:    -6.764      6.989      7.657
REMARK INTER + INTRA:          -8.272
REMARK INTER:                  -7.784
REMARK INTRA:                  -0.488
REMARK UNBOUND:                -0.322
REMARK SMILES O=C(Nc1ccc2c(c1)OC(F)(F)O2)Nc1ccc(Cl)c(C(F)(F)F)c1
REMARK SMILES IDX 20 1 16 2 21 3 26 4 17 5 19 6 18 7 22 8 23 9 24 10 25 11
REMARK SMILES IDX 15 12 2 13 1 15 3 16 4 18 9 19 5 20 8 21 6 22 10 23 7 24
REMARK SMILES IDX 11 25 14 26 12 27 13 28
REMARK H PARENT 15 14 3 17
REMARK Flexibility Score: inf
ROOT
ATOM      1  Cl  UNL     1      23.190  -0.309  11.882  1.00  0.00    -0.084 Cl
ATOM      2  C   UNL     1      21.816   3.907  12.732  1.00  0.00     0.043 A 
ATOM      3  C   UNL     1      21.281   1.604  12.234  1.00  0.00     0.076 A 
ATOM      4  C   UNL     1      20.869   2.910  12.499  1.00  0.00     0.040 A 
ATOM      5  C   UNL     1      23.176   3.599  12.701  1.00  0.00     0.028 A 
ATOM      6  C   UNL     1      22.641   1.295  12.203  1.00  0.00     0.053 A 
ATOM      7  C   UNL     1      23.589   2.293  12.436  1.00  0.00     0.023 A 
ENDROOT
BRANCH   3   8
ATOM      8  C   UNL     1      20.236   0.564  11.991  1.00  0.00     0.417 C 
ATOM      9  F   UNL     1      20.421  -0.095  10.811  1.00  0.00    -0.166 F 
ATOM     10  F   UNL     1      20.196  -0.403  12.952  1.00  0.00    -0.166 F 
ATOM     11  F   UNL     1      18.969   1.070  11.936  1.00  0.00    -0.166 F 
ENDBRANCH   3   8
BRANCH   2  12
ATOM     12  N   UNL     1      21.398   5.232  12.998  1.00  0.00    -0.308 N 
ATOM     13  C   UNL     1      20.857   6.165  12.099  1.00  0.00     0.323 C 
ATOM     14  H   UNL     1      21.505   5.538  13.962  1.00  0.00     0.171 HD
ATOM     15  O   UNL     1      20.658   5.967  10.905  1.00  0.00    -0.248 OA
ATOM     16  N   UNL     1      20.572   7.378  12.773  1.00  0.00    -0.308 N 
ATOM     17  H   UNL     1      20.791   7.396  13.766  1.00  0.00     0.171 HD
BRANCH  16  18
ATOM     18  C   UNL     1      20.031   8.555  12.256  1.00  0.00     0.046 A 
ATOM     19  C   UNL     1      18.732   8.933  12.610  1.00  0.00     0.077 A 
ATOM     20  C   UNL     1      20.795   9.351  11.386  1.00  0.00     0.030 A 
ATOM     21  C   UNL     1      18.238  10.105  12.076  1.00  0.00     0.174 A 
ATOM     22  C   UNL     1      20.271  10.535  10.859  1.00  0.00     0.053 A 
ATOM     23  O   UNL     1      17.003  10.628  12.307  1.00  0.00    -0.395 OA
ATOM     24  C   UNL     1      18.988  10.885  11.224  1.00  0.00     0.172 A 
ATOM     25  C   UNL     1      17.072  11.814  11.502  1.00  0.00     0.586 C 
ATOM     26  O   UNL     1      18.317  11.996  10.812  1.00  0.00    -0.395 OA
ATOM     27  F   UNL     1      16.857  12.891  12.298  1.00  0.00    -0.125 F 
ATOM     28  F   UNL     1      16.071  11.776  10.587  1.00  0.00    -0.125 F 
ENDBRANCH  16  18
ENDBRANCH   2  12
TORSDOF 3
ENDMDL
MODEL 20
REMARK VINA RESULT:    -6.745      1.717      2.107
REMARK INTER + INTRA:          -8.250
REMARK INTER:                  -7.693
REMARK INTRA:                  -0.557
REMARK UNBOUND:                -0.322
REMARK SMILES O=C(Nc1ccc2c(c1)OC(F)(F)O2)Nc1ccc(Cl)c(C(F)(F)F)c1
REMARK SMILES IDX 20 1 16 2 21 3 26 4 17 5 19 6 18 7 22 8 23 9 24 10 25 11
REMARK SMILES IDX 15 12 2 13 1 15 3 16 4 18 9 19 5 20 8 21 6 22 10 23 7 24
REMARK SMILES IDX 11 25 14 26 12 27 13 28
REMARK H PARENT 15 14 3 17
REMARK Flexibility Score: inf
ROOT
ATOM      1  Cl  UNL     1      27.862  -0.651  14.540  1.00  0.00    -0.084 Cl
ATOM      2  C   UNL     1      23.414  -0.648  13.759  1.00  0.00     0.043 A 
ATOM      3  C   UNL     1      25.568  -1.716  13.521  1.00  0.00     0.076 A 
ATOM      4  C   UNL     1      24.193  -1.704  13.287  1.00  0.00     0.040 A 
ATOM      5  C   UNL     1      24.010   0.397  14.466  1.00  0.00     0.028 A 
ATOM      6  C   UNL     1      26.164  -0.671  14.228  1.00  0.00     0.053 A 
ATOM      7  C   UNL     1      25.385   0.386  14.700  1.00  0.00     0.023 A 
ENDROOT
BRANCH   3   8
ATOM      8  C   UNL     1      26.368  -2.866  13.001  1.00  0.00     0.417 C 
ATOM      9  F   UNL     1      27.052  -3.514  13.987  1.00  0.00    -0.166 F 
ATOM     10  F   UNL     1      25.613  -3.821  12.386  1.00  0.00    -0.166 F 
ATOM     11  F   UNL     1      27.307  -2.501  12.080  1.00  0.00    -0.166 F 
ENDBRANCH   3   8
BRANCH   2  12
ATOM     12  N   UNL     1      22.020  -0.635  13.520  1.00  0.00    -0.308 N 
ATOM     13  C   UNL     1      21.349  -0.290  12.336  1.00  0.00     0.323 C 
ATOM     14  H   UNL     1      21.440  -0.911  14.308  1.00  0.00     0.171 HD
ATOM     15  O   UNL     1      21.889   0.065  11.292  1.00  0.00    -0.248 OA
ATOM     16  N   UNL     1      19.950  -0.411  12.519  1.00  0.00    -0.308 N 
ATOM     17  H   UNL     1      19.647  -0.716  13.441  1.00  0.00     0.171 HD
BRANCH  16  18
ATOM     18  C   UNL     1      18.927  -0.166  11.603  1.00  0.00     0.046 A 
ATOM     19  C   UNL     1      18.336  -1.235  10.924  1.00  0.00     0.077 A 
ATOM     20  C   UNL     1      18.499   1.153  11.371  1.00  0.00     0.030 A 
ATOM     21  C   UNL     1      17.328  -0.947  10.027  1.00  0.00     0.174 A 
ATOM     22  C   UNL     1      17.475   1.419  10.458  1.00  0.00     0.053 A 
ATOM     23  O   UNL     1      16.641  -1.853   9.280  1.00  0.00    -0.395 OA
ATOM     24  C   UNL     1      16.909   0.346   9.801  1.00  0.00     0.172 A 
ATOM     25  C   UNL     1      15.754  -0.979   8.567  1.00  0.00     0.586 C 
ATOM     26  O   UNL     1      15.905   0.413   8.883  1.00  0.00    -0.395 OA
ATOM     27  F   UNL     1      14.476  -1.347   8.834  1.00  0.00    -0.125 F 
ATOM     28  F   UNL     1      15.958  -1.146   7.237  1.00  0.00    -0.125 F 
ENDBRANCH  16  18
ENDBRANCH   2  12
TORSDOF 3
ENDMDL
