MODEL 1
REMARK VINA RESULT:    -7.694      0.000      0.000
REMARK INTER + INTRA:         -11.438
REMARK INTER:                 -10.963
REMARK INTRA:                  -0.475
REMARK UNBOUND:                -1.046
REMARK SMILES CNC(=O)c1cc(Oc2ccc(NC(=O)Nc3ccc(Cl)c(C(F)(F)F)c3)cc2)ccn1
REMARK SMILES IDX 12 1 9 2 11 3 28 4 10 5 29 6 13 7 16 8 14 9 15 11 17 13
REMARK SMILES IDX 21 14 20 15 22 16 19 17 27 18 18 19 23 20 24 21 25 22 26 23
REMARK SMILES IDX 8 24 7 25 6 26 30 27 5 28 31 29 32 30 3 31 4 32 2 33 1 34
REMARK H PARENT 16 10 13 12 2 35
REMARK Flexibility Score: inf
ROOT
ATOM      1  C   UNL     1      82.965   1.640  10.936  1.00  0.00     0.043 A 
ATOM      2  C   UNL     1      80.887   1.239   9.148  1.00  0.00     0.127 A 
ATOM      3  C   UNL     1      83.153   1.948   9.598  1.00  0.00     0.030 A 
ATOM      4  C   UNL     1      81.761   1.135  11.398  1.00  0.00     0.030 A 
ATOM      5  C   UNL     1      82.106   1.747   8.699  1.00  0.00     0.049 A 
ATOM      6  C   UNL     1      80.715   0.934  10.498  1.00  0.00     0.049 A 
ENDROOT
BRANCH   1   7
ATOM      7  N   UNL     1      84.026   1.845  11.849  1.00  0.00    -0.308 N 
ATOM      8  N   UNL     1      85.957   1.583  13.089  1.00  0.00    -0.308 N 
ATOM      9  C   UNL     1      85.125   1.007  12.099  1.00  0.00     0.323 C 
ATOM     10  H   UNL     1      85.653   2.479  13.459  1.00  0.00     0.171 HD
ATOM     11  O   UNL     1      85.338  -0.068  11.545  1.00  0.00    -0.248 OA
ATOM     12  H   UNL     1      83.981   2.707  12.384  1.00  0.00     0.171 HD
BRANCH   8  13
ATOM     13  C   UNL     1      87.143   1.083  13.628  1.00  0.00     0.043 A 
ATOM     14  Cl  UNL     1      90.996  -0.495  15.375  1.00  0.00    -0.084 Cl
ATOM     15  C   UNL     1      89.515   0.085  14.705  1.00  0.00     0.053 A 
ATOM     16  C   UNL     1      88.534  -0.793  14.247  1.00  0.00     0.076 A 
ATOM     17  C   UNL     1      89.311   1.463  14.624  1.00  0.00     0.023 A 
ATOM     18  C   UNL     1      87.347  -0.294  13.708  1.00  0.00     0.040 A 
ATOM     19  C   UNL     1      88.125   1.962  14.086  1.00  0.00     0.028 A 
BRANCH  16  20
ATOM     20  C   UNL     1      88.715  -2.276  14.314  1.00  0.00     0.417 C 
ATOM     21  F   UNL     1      89.964  -2.688  13.947  1.00  0.00    -0.166 F 
ATOM     22  F   UNL     1      88.520  -2.791  15.562  1.00  0.00    -0.166 F 
ATOM     23  F   UNL     1      87.851  -2.944  13.499  1.00  0.00    -0.166 F 
ENDBRANCH  16  20
ENDBRANCH   8  13
ENDBRANCH   1   7
BRANCH   2  24
ATOM     24  O   UNL     1      79.867   1.040   8.270  1.00  0.00    -0.457 OA
BRANCH  24  25
ATOM     25  C   UNL     1      78.913   2.037   8.156  1.00  0.00     0.131 A 
ATOM     26  C   UNL     1      79.094   3.040   7.228  1.00  0.00     0.081 A 
ATOM     27  C   UNL     1      77.803   2.003   8.972  1.00  0.00     0.067 A 
ATOM     28  C   UNL     1      78.109   4.013   7.152  1.00  0.00     0.131 A 
ATOM     29  C   UNL     1      76.877   3.022   8.818  1.00  0.00     0.116 A 
ATOM     30  N   UNL     1      77.002   4.031   7.926  1.00  0.00    -0.251 NA
BRANCH  28  31
ATOM     31  C   UNL     1      78.229   5.103   6.198  1.00  0.00     0.269 C 
ATOM     32  O   UNL     1      77.720   6.214   6.440  1.00  0.00    -0.268 OA
ATOM     33  N   UNL     1      78.953   4.848   5.028  1.00  0.00    -0.354 N 
ATOM     34  C   UNL     1      79.180   5.835   3.996  1.00  0.00     0.143 C 
ATOM     35  H   UNL     1      79.372   3.931   4.903  1.00  0.00     0.163 HD
ENDBRANCH  28  31
ENDBRANCH  24  25
ENDBRANCH   2  24
TORSDOF 6
ENDMDL
MODEL 2
REMARK VINA RESULT:    -7.649      0.793      1.054
REMARK INTER + INTRA:         -11.378
REMARK INTER:                 -11.034
REMARK INTRA:                  -0.344
REMARK UNBOUND:                -1.046
REMARK SMILES CNC(=O)c1cc(Oc2ccc(NC(=O)Nc3ccc(Cl)c(C(F)(F)F)c3)cc2)ccn1
REMARK SMILES IDX 12 1 9 2 11 3 28 4 10 5 29 6 13 7 16 8 14 9 15 11 17 13
REMARK SMILES IDX 21 14 20 15 22 16 19 17 27 18 18 19 23 20 24 21 25 22 26 23
REMARK SMILES IDX 8 24 7 25 6 26 30 27 5 28 31 29 32 30 3 31 4 32 2 33 1 34
REMARK H PARENT 16 10 13 12 2 35
REMARK Flexibility Score: inf
ROOT
ATOM      1  C   UNL     1      82.947   1.648  10.869  1.00  0.00     0.043 A 
ATOM      2  C   UNL     1      80.774   1.114   9.236  1.00  0.00     0.127 A 
ATOM      3  C   UNL     1      83.054   1.869   9.505  1.00  0.00     0.030 A 
ATOM      4  C   UNL     1      81.778   1.164  11.433  1.00  0.00     0.030 A 
ATOM      5  C   UNL     1      81.959   1.601   8.683  1.00  0.00     0.049 A 
ATOM      6  C   UNL     1      80.684   0.895  10.610  1.00  0.00     0.049 A 
ENDROOT
BRANCH   1   7
ATOM      7  N   UNL     1      84.057   1.921  11.703  1.00  0.00    -0.308 N 
ATOM      8  N   UNL     1      86.011   1.721  12.917  1.00  0.00    -0.308 N 
ATOM      9  C   UNL     1      85.099   1.053  12.066  1.00  0.00     0.323 C 
ATOM     10  H   UNL     1      85.790   2.690  13.133  1.00  0.00     0.171 HD
ATOM     11  O   UNL     1      85.209  -0.115  11.704  1.00  0.00    -0.248 OA
ATOM     12  H   UNL     1      84.098   2.864  12.080  1.00  0.00     0.171 HD
BRANCH   8  13
ATOM     13  C   UNL     1      87.178   1.228  13.503  1.00  0.00     0.043 A 
ATOM     14  Cl  UNL     1      90.967  -0.329  15.401  1.00  0.00    -0.084 Cl
ATOM     15  C   UNL     1      89.510   0.243  14.674  1.00  0.00     0.053 A 
ATOM     16  C   UNL     1      88.525  -0.639  14.234  1.00  0.00     0.076 A 
ATOM     17  C   UNL     1      89.331   1.619  14.528  1.00  0.00     0.023 A 
ATOM     18  C   UNL     1      87.358  -0.147  13.649  1.00  0.00     0.040 A 
ATOM     19  C   UNL     1      88.164   2.112  13.943  1.00  0.00     0.028 A 
BRANCH  16  20
ATOM     20  C   UNL     1      88.680  -2.120  14.371  1.00  0.00     0.417 C 
ATOM     21  F   UNL     1      88.482  -2.573  15.643  1.00  0.00    -0.166 F 
ATOM     22  F   UNL     1      87.810  -2.832  13.598  1.00  0.00    -0.166 F 
ATOM     23  F   UNL     1      89.925  -2.549  14.017  1.00  0.00    -0.166 F 
ENDBRANCH  16  20
ENDBRANCH   8  13
ENDBRANCH   1   7
BRANCH   2  24
ATOM     24  O   UNL     1      79.707   0.849   8.433  1.00  0.00    -0.457 OA
BRANCH  24  25
ATOM     25  C   UNL     1      78.576   1.634   8.587  1.00  0.00     0.131 A 
ATOM     26  C   UNL     1      78.446   2.783   7.838  1.00  0.00     0.081 A 
ATOM     27  C   UNL     1      77.606   1.246   9.486  1.00  0.00     0.067 A 
ATOM     28  C   UNL     1      77.295   3.532   8.028  1.00  0.00     0.131 A 
ATOM     29  C   UNL     1      76.493   2.063   9.602  1.00  0.00     0.116 A 
ATOM     30  N   UNL     1      76.313   3.201   8.894  1.00  0.00    -0.251 NA
BRANCH  28  31
ATOM     31  C   UNL     1      77.086   4.757   7.275  1.00  0.00     0.269 C 
ATOM     32  O   UNL     1      76.122   5.501   7.533  1.00  0.00    -0.268 OA
ATOM     33  N   UNL     1      78.023   5.061   6.280  1.00  0.00    -0.354 N 
ATOM     34  C   UNL     1      77.965   6.252   5.464  1.00  0.00     0.143 C 
ATOM     35  H   UNL     1      78.807   4.430   6.139  1.00  0.00     0.163 HD
ENDBRANCH  28  31
ENDBRANCH  24  25
ENDBRANCH   2  24
TORSDOF 6
ENDMDL
MODEL 3
REMARK VINA RESULT:    -7.541      7.080     11.336
REMARK INTER + INTRA:         -11.231
REMARK INTER:                 -10.205
REMARK INTRA:                  -1.026
REMARK UNBOUND:                -1.046
REMARK SMILES CNC(=O)c1cc(Oc2ccc(NC(=O)Nc3ccc(Cl)c(C(F)(F)F)c3)cc2)ccn1
REMARK SMILES IDX 12 1 9 2 11 3 28 4 10 5 29 6 13 7 16 8 14 9 15 11 17 13
REMARK SMILES IDX 21 14 20 15 22 16 19 17 27 18 18 19 23 20 24 21 25 22 26 23
REMARK SMILES IDX 8 24 7 25 6 26 30 27 5 28 31 29 32 30 3 31 4 32 2 33 1 34
REMARK H PARENT 16 10 13 12 2 35
REMARK Flexibility Score: inf
ROOT
ATOM      1  C   UNL     1      85.762   2.844  10.509  1.00  0.00     0.043 A 
ATOM      2  C   UNL     1      86.379   0.229  11.180  1.00  0.00     0.127 A 
ATOM      3  C   UNL     1      84.739   1.969  10.835  1.00  0.00     0.030 A 
ATOM      4  C   UNL     1      87.086   2.439  10.509  1.00  0.00     0.030 A 
ATOM      5  C   UNL     1      85.050   0.652  11.174  1.00  0.00     0.049 A 
ATOM      6  C   UNL     1      87.397   1.122  10.848  1.00  0.00     0.049 A 
ENDROOT
BRANCH   1   7
ATOM      7  N   UNL     1      85.446   4.180  10.166  1.00  0.00    -0.308 N 
ATOM      8  N   UNL     1      85.020   6.447  10.270  1.00  0.00    -0.308 N 
ATOM      9  C   UNL     1      85.364   5.294  11.016  1.00  0.00     0.323 C 
ATOM     10  H   UNL     1      84.889   6.308   9.272  1.00  0.00     0.171 HD
ATOM     11  O   UNL     1      85.559   5.278  12.228  1.00  0.00    -0.248 OA
ATOM     12  H   UNL     1      85.258   4.344   9.181  1.00  0.00     0.171 HD
BRANCH   8  13
ATOM     13  C   UNL     1      84.836   7.755  10.723  1.00  0.00     0.043 A 
ATOM     14  Cl  UNL     1      84.278  11.994  12.173  1.00  0.00    -0.084 Cl
ATOM     15  C   UNL     1      84.470  10.368  11.629  1.00  0.00     0.053 A 
ATOM     16  C   UNL     1      83.538   9.382  11.949  1.00  0.00     0.076 A 
ATOM     17  C   UNL     1      85.586  10.047  10.856  1.00  0.00     0.023 A 
ATOM     18  C   UNL     1      83.720   8.074  11.496  1.00  0.00     0.040 A 
ATOM     19  C   UNL     1      85.770   8.741  10.403  1.00  0.00     0.028 A 
BRANCH  16  20
ATOM     20  C   UNL     1      82.329   9.684  12.776  1.00  0.00     0.417 C 
ATOM     21  F   UNL     1      82.622  10.283  13.968  1.00  0.00    -0.166 F 
ATOM     22  F   UNL     1      81.446  10.522  12.161  1.00  0.00    -0.166 F 
ATOM     23  F   UNL     1      81.619   8.563  13.091  1.00  0.00    -0.166 F 
ENDBRANCH  16  20
ENDBRANCH   8  13
ENDBRANCH   1   7
BRANCH   2  24
ATOM     24  O   UNL     1      86.682  -1.057  11.508  1.00  0.00    -0.457 OA
BRANCH  24  25
ATOM     25  C   UNL     1      87.404  -1.271  12.671  1.00  0.00     0.131 A 
ATOM     26  C   UNL     1      88.669  -1.812  12.589  1.00  0.00     0.081 A 
ATOM     27  C   UNL     1      86.840  -0.938  13.884  1.00  0.00     0.067 A 
ATOM     28  C   UNL     1      89.350  -2.005  13.781  1.00  0.00     0.131 A 
ATOM     29  C   UNL     1      87.603  -1.170  15.017  1.00  0.00     0.116 A 
ATOM     30  N   UNL     1      88.848  -1.698  14.997  1.00  0.00    -0.251 NA
BRANCH  28  31
ATOM     31  C   UNL     1      90.688  -2.570  13.776  1.00  0.00     0.269 C 
ATOM     32  O   UNL     1      90.860  -3.788  13.583  1.00  0.00    -0.268 OA
ATOM     33  N   UNL     1      91.754  -1.684  13.974  1.00  0.00    -0.354 N 
ATOM     34  C   UNL     1      93.142  -2.089  13.972  1.00  0.00     0.143 C 
ATOM     35  H   UNL     1      91.552  -0.695  14.094  1.00  0.00     0.163 HD
ENDBRANCH  28  31
ENDBRANCH  24  25
ENDBRANCH   2  24
TORSDOF 6
ENDMDL
MODEL 4
REMARK VINA RESULT:    -7.488      2.236      2.937
REMARK INTER + INTRA:         -11.160
REMARK INTER:                 -10.167
REMARK INTRA:                  -0.993
REMARK UNBOUND:                -1.046
REMARK SMILES CNC(=O)c1cc(Oc2ccc(NC(=O)Nc3ccc(Cl)c(C(F)(F)F)c3)cc2)ccn1
REMARK SMILES IDX 12 1 9 2 11 3 28 4 10 5 29 6 13 7 16 8 14 9 15 11 17 13
REMARK SMILES IDX 21 14 20 15 22 16 19 17 27 18 18 19 23 20 24 21 25 22 26 23
REMARK SMILES IDX 8 24 7 25 6 26 30 27 5 28 31 29 32 30 3 31 4 32 2 33 1 34
REMARK H PARENT 16 10 13 12 2 35
REMARK Flexibility Score: inf
ROOT
ATOM      1  C   UNL     1      82.969  -0.084  11.414  1.00  0.00     0.043 A 
ATOM      2  C   UNL     1      81.138   0.188   9.352  1.00  0.00     0.127 A 
ATOM      3  C   UNL     1      82.769  -1.141  10.541  1.00  0.00     0.030 A 
ATOM      4  C   UNL     1      82.272   1.106  11.278  1.00  0.00     0.030 A 
ATOM      5  C   UNL     1      81.848  -1.003   9.502  1.00  0.00     0.049 A 
ATOM      6  C   UNL     1      81.351   1.243  10.239  1.00  0.00     0.049 A 
ENDROOT
BRANCH   1   7
ATOM      7  N   UNL     1      83.903  -0.223  12.466  1.00  0.00    -0.308 N 
ATOM      8  N   UNL     1      85.863  -0.314  13.685  1.00  0.00    -0.308 N 
ATOM      9  C   UNL     1      85.300  -0.099  12.404  1.00  0.00     0.323 C 
ATOM     10  H   UNL     1      85.204  -0.517  14.432  1.00  0.00     0.171 HD
ATOM     11  O   UNL     1      85.945   0.157  11.392  1.00  0.00    -0.248 OA
ATOM     12  H   UNL     1      83.506  -0.438  13.377  1.00  0.00     0.171 HD
BRANCH   8  13
ATOM     13  C   UNL     1      87.206  -0.284  14.063  1.00  0.00     0.043 A 
ATOM     14  Cl  UNL     1      91.551  -0.229  15.289  1.00  0.00    -0.084 Cl
ATOM     15  C   UNL     1      89.891  -0.225  14.819  1.00  0.00     0.053 A 
ATOM     16  C   UNL     1      89.190   0.967  14.643  1.00  0.00     0.076 A 
ATOM     17  C   UNL     1      89.249  -1.448  14.618  1.00  0.00     0.023 A 
ATOM     18  C   UNL     1      87.847   0.939  14.264  1.00  0.00     0.040 A 
ATOM     19  C   UNL     1      87.906  -1.477  14.240  1.00  0.00     0.028 A 
BRANCH  16  20
ATOM     20  C   UNL     1      89.841   2.297  14.850  1.00  0.00     0.417 C 
ATOM     21  F   UNL     1      88.986   3.351  14.696  1.00  0.00    -0.166 F 
ATOM     22  F   UNL     1      90.379   2.450  16.094  1.00  0.00    -0.166 F 
ATOM     23  F   UNL     1      90.862   2.520  13.975  1.00  0.00    -0.166 F 
ENDBRANCH  16  20
ENDBRANCH   8  13
ENDBRANCH   1   7
BRANCH   2  24
ATOM     24  O   UNL     1      80.238   0.321   8.340  1.00  0.00    -0.457 OA
BRANCH  24  25
ATOM     25  C   UNL     1      80.312   1.462   7.558  1.00  0.00     0.131 A 
ATOM     26  C   UNL     1      79.315   2.409   7.651  1.00  0.00     0.081 A 
ATOM     27  C   UNL     1      81.383   1.624   6.705  1.00  0.00     0.067 A 
ATOM     28  C   UNL     1      79.438   3.533   6.849  1.00  0.00     0.131 A 
ATOM     29  C   UNL     1      81.413   2.783   5.946  1.00  0.00     0.116 A 
ATOM     30  N   UNL     1      80.464   3.745   5.995  1.00  0.00    -0.251 NA
BRANCH  28  31
ATOM     31  C   UNL     1      78.427   4.576   6.890  1.00  0.00     0.269 C 
ATOM     32  O   UNL     1      77.640   4.656   7.851  1.00  0.00    -0.268 OA
ATOM     33  N   UNL     1      78.403   5.482   5.823  1.00  0.00    -0.354 N 
ATOM     34  C   UNL     1      77.474   6.586   5.732  1.00  0.00     0.143 C 
ATOM     35  H   UNL     1      79.093   5.384   5.084  1.00  0.00     0.163 HD
ENDBRANCH  28  31
ENDBRANCH  24  25
ENDBRANCH   2  24
TORSDOF 6
ENDMDL
MODEL 5
REMARK VINA RESULT:    -7.432      1.539      1.726
REMARK INTER + INTRA:         -11.085
REMARK INTER:                 -10.008
REMARK INTRA:                  -1.077
REMARK UNBOUND:                -1.046
REMARK SMILES CNC(=O)c1cc(Oc2ccc(NC(=O)Nc3ccc(Cl)c(C(F)(F)F)c3)cc2)ccn1
REMARK SMILES IDX 12 1 9 2 11 3 28 4 10 5 29 6 13 7 16 8 14 9 15 11 17 13
REMARK SMILES IDX 21 14 20 15 22 16 19 17 27 18 18 19 23 20 24 21 25 22 26 23
REMARK SMILES IDX 8 24 7 25 6 26 30 27 5 28 31 29 32 30 3 31 4 32 2 33 1 34
REMARK H PARENT 16 10 13 12 2 35
REMARK Flexibility Score: inf
ROOT
ATOM      1  C   UNL     1      83.589   0.667  10.791  1.00  0.00     0.043 A 
ATOM      2  C   UNL     1      80.922   0.180  10.218  1.00  0.00     0.127 A 
ATOM      3  C   UNL     1      83.264  -0.203   9.762  1.00  0.00     0.030 A 
ATOM      4  C   UNL     1      82.608   1.297  11.540  1.00  0.00     0.030 A 
ATOM      5  C   UNL     1      81.922  -0.447   9.474  1.00  0.00     0.049 A 
ATOM      6  C   UNL     1      81.266   1.052  11.250  1.00  0.00     0.049 A 
ENDROOT
BRANCH   1   7
ATOM      7  N   UNL     1      84.950   0.915  11.083  1.00  0.00    -0.308 N 
ATOM      8  N   UNL     1      87.038   0.897  12.070  1.00  0.00    -0.308 N 
ATOM      9  C   UNL     1      85.716   0.395  12.139  1.00  0.00     0.323 C 
ATOM     10  H   UNL     1      87.233   1.533  11.302  1.00  0.00     0.171 HD
ATOM     11  O   UNL     1      85.307  -0.381  12.997  1.00  0.00    -0.248 OA
ATOM     12  H   UNL     1      85.425   1.549  10.446  1.00  0.00     0.171 HD
BRANCH   8  13
ATOM     13  C   UNL     1      88.114   0.635  12.920  1.00  0.00     0.043 A 
ATOM     14  Cl  UNL     1      91.588  -0.175  15.688  1.00  0.00    -0.084 Cl
ATOM     15  C   UNL     1      90.266   0.114  14.617  1.00  0.00     0.053 A 
ATOM     16  C   UNL     1      90.025  -0.714  13.522  1.00  0.00     0.076 A 
ATOM     17  C   UNL     1      89.431   1.204  14.864  1.00  0.00     0.023 A 
ATOM     18  C   UNL     1      88.949  -0.454  12.673  1.00  0.00     0.040 A 
ATOM     19  C   UNL     1      88.355   1.465  14.015  1.00  0.00     0.028 A 
BRANCH  16  20
ATOM     20  C   UNL     1      90.898  -1.891  13.223  1.00  0.00     0.417 C 
ATOM     21  F   UNL     1      92.216  -1.569  13.079  1.00  0.00    -0.166 F 
ATOM     22  F   UNL     1      90.867  -2.851  14.192  1.00  0.00    -0.166 F 
ATOM     23  F   UNL     1      90.544  -2.522  12.067  1.00  0.00    -0.166 F 
ENDBRANCH  16  20
ENDBRANCH   8  13
ENDBRANCH   1   7
BRANCH   2  24
ATOM     24  O   UNL     1      79.612  -0.060   9.937  1.00  0.00    -0.457 OA
BRANCH  24  25
ATOM     25  C   UNL     1      78.830   1.014   9.548  1.00  0.00     0.131 A 
ATOM     26  C   UNL     1      79.232   1.789   8.481  1.00  0.00     0.081 A 
ATOM     27  C   UNL     1      77.666   1.283  10.235  1.00  0.00     0.067 A 
ATOM     28  C   UNL     1      78.413   2.851   8.130  1.00  0.00     0.131 A 
ATOM     29  C   UNL     1      76.917   2.367   9.806  1.00  0.00     0.116 A 
ATOM     30  N   UNL     1      77.263   3.162   8.767  1.00  0.00    -0.251 NA
BRANCH  28  31
ATOM     31  C   UNL     1      78.770   3.713   7.017  1.00  0.00     0.269 C 
ATOM     32  O   UNL     1      78.459   4.919   7.026  1.00  0.00    -0.268 OA
ATOM     33  N   UNL     1      79.489   3.132   5.966  1.00  0.00    -0.354 N 
ATOM     34  C   UNL     1      79.937   3.863   4.801  1.00  0.00     0.143 C 
ATOM     35  H   UNL     1      79.742   2.150   6.031  1.00  0.00     0.163 HD
ENDBRANCH  28  31
ENDBRANCH  24  25
ENDBRANCH   2  24
TORSDOF 6
ENDMDL
MODEL 6
REMARK VINA RESULT:    -7.335      6.179      9.431
REMARK INTER + INTRA:         -10.954
REMARK INTER:                 -10.117
REMARK INTRA:                  -0.837
REMARK UNBOUND:                -1.046
REMARK SMILES CNC(=O)c1cc(Oc2ccc(NC(=O)Nc3ccc(Cl)c(C(F)(F)F)c3)cc2)ccn1
REMARK SMILES IDX 12 1 9 2 11 3 28 4 10 5 29 6 13 7 16 8 14 9 15 11 17 13
REMARK SMILES IDX 21 14 20 15 22 16 19 17 27 18 18 19 23 20 24 21 25 22 26 23
REMARK SMILES IDX 8 24 7 25 6 26 30 27 5 28 31 29 32 30 3 31 4 32 2 33 1 34
REMARK H PARENT 16 10 13 12 2 35
REMARK Flexibility Score: inf
ROOT
ATOM      1  C   UNL     1      82.426   1.361  10.135  1.00  0.00     0.043 A 
ATOM      2  C   UNL     1      84.804   2.772  10.300  1.00  0.00     0.127 A 
ATOM      3  C   UNL     1      83.125   1.372  11.331  1.00  0.00     0.030 A 
ATOM      4  C   UNL     1      82.891   2.039   9.020  1.00  0.00     0.030 A 
ATOM      5  C   UNL     1      84.322   2.084  11.414  1.00  0.00     0.049 A 
ATOM      6  C   UNL     1      84.088   2.750   9.104  1.00  0.00     0.049 A 
ENDROOT
BRANCH   1   7
ATOM      7  N   UNL     1      81.212   0.640  10.050  1.00  0.00    -0.308 N 
ATOM      8  N   UNL     1      79.598  -0.914   9.489  1.00  0.00    -0.308 N 
ATOM      9  C   UNL     1      80.938  -0.507   9.288  1.00  0.00     0.323 C 
ATOM     10  H   UNL     1      79.051  -0.342  10.127  1.00  0.00     0.171 HD
ATOM     11  O   UNL     1      81.739  -1.077   8.553  1.00  0.00    -0.248 OA
ATOM     12  H   UNL     1      80.448   1.004  10.615  1.00  0.00     0.171 HD
BRANCH   8  13
ATOM     13  C   UNL     1      78.922  -1.997   8.926  1.00  0.00     0.043 A 
ATOM     14  Cl  UNL     1      76.707  -5.478   7.092  1.00  0.00    -0.084 Cl
ATOM     15  C   UNL     1      77.571  -4.163   7.800  1.00  0.00     0.053 A 
ATOM     16  C   UNL     1      78.742  -4.373   8.527  1.00  0.00     0.076 A 
ATOM     17  C   UNL     1      77.075  -2.870   7.636  1.00  0.00     0.023 A 
ATOM     18  C   UNL     1      79.419  -3.290   9.090  1.00  0.00     0.040 A 
ATOM     19  C   UNL     1      77.750  -1.786   8.199  1.00  0.00     0.028 A 
BRANCH  16  20
ATOM     20  C   UNL     1      79.305  -5.744   8.727  1.00  0.00     0.417 C 
ATOM     21  F   UNL     1      79.380  -6.475   7.577  1.00  0.00    -0.166 F 
ATOM     22  F   UNL     1      80.572  -5.742   9.234  1.00  0.00    -0.166 F 
ATOM     23  F   UNL     1      78.562  -6.492   9.592  1.00  0.00    -0.166 F 
ENDBRANCH  16  20
ENDBRANCH   8  13
ENDBRANCH   1   7
BRANCH   2  24
ATOM     24  O   UNL     1      85.973   3.464  10.381  1.00  0.00    -0.457 OA
BRANCH  24  25
ATOM     25  C   UNL     1      86.009   4.573  11.211  1.00  0.00     0.131 A 
ATOM     26  C   UNL     1      85.130   5.610  10.987  1.00  0.00     0.081 A 
ATOM     27  C   UNL     1      86.923   4.612  12.242  1.00  0.00     0.067 A 
ATOM     28  C   UNL     1      85.205   6.695  11.846  1.00  0.00     0.131 A 
ATOM     29  C   UNL     1      86.917   5.742  13.045  1.00  0.00     0.116 A 
ATOM     30  N   UNL     1      86.079   6.789  12.872  1.00  0.00    -0.251 NA
BRANCH  28  31
ATOM     31  C   UNL     1      84.311   7.828  11.675  1.00  0.00     0.269 C 
ATOM     32  O   UNL     1      84.174   8.363  10.559  1.00  0.00    -0.268 OA
ATOM     33  N   UNL     1      83.608   8.262  12.806  1.00  0.00    -0.354 N 
ATOM     34  C   UNL     1      82.666   9.358  12.791  1.00  0.00     0.143 C 
ATOM     35  H   UNL     1      83.738   7.763  13.682  1.00  0.00     0.163 HD
ENDBRANCH  28  31
ENDBRANCH  24  25
ENDBRANCH   2  24
TORSDOF 6
ENDMDL
MODEL 7
REMARK VINA RESULT:    -7.300      1.571      2.184
REMARK INTER + INTRA:         -10.906
REMARK INTER:                  -9.966
REMARK INTRA:                  -0.940
REMARK UNBOUND:                -1.046
REMARK SMILES CNC(=O)c1cc(Oc2ccc(NC(=O)Nc3ccc(Cl)c(C(F)(F)F)c3)cc2)ccn1
REMARK SMILES IDX 12 1 9 2 11 3 28 4 10 5 29 6 13 7 16 8 14 9 15 11 17 13
REMARK SMILES IDX 21 14 20 15 22 16 19 17 27 18 18 19 23 20 24 21 25 22 26 23
REMARK SMILES IDX 8 24 7 25 6 26 30 27 5 28 31 29 32 30 3 31 4 32 2 33 1 34
REMARK H PARENT 16 10 13 12 2 35
REMARK Flexibility Score: inf
ROOT
ATOM      1  C   UNL     1      82.823  -0.088  11.382  1.00  0.00     0.043 A 
ATOM      2  C   UNL     1      80.899   0.245   9.417  1.00  0.00     0.127 A 
ATOM      3  C   UNL     1      82.540  -1.140  10.526  1.00  0.00     0.030 A 
ATOM      4  C   UNL     1      82.163   1.126  11.277  1.00  0.00     0.030 A 
ATOM      5  C   UNL     1      81.572  -0.972   9.536  1.00  0.00     0.049 A 
ATOM      6  C   UNL     1      81.195   1.293  10.287  1.00  0.00     0.049 A 
ENDROOT
BRANCH   1   7
ATOM      7  N   UNL     1      83.805  -0.257  12.386  1.00  0.00    -0.308 N 
ATOM      8  N   UNL     1      85.821  -0.457  13.494  1.00  0.00    -0.308 N 
ATOM      9  C   UNL     1      85.202  -0.254  12.238  1.00  0.00     0.323 C 
ATOM     10  H   UNL     1      85.194  -0.572  14.286  1.00  0.00     0.171 HD
ATOM     11  O   UNL     1      85.802  -0.097  11.179  1.00  0.00    -0.248 OA
ATOM     12  H   UNL     1      83.447  -0.398  13.327  1.00  0.00     0.171 HD
BRANCH   8  13
ATOM     13  C   UNL     1      87.183  -0.523  13.793  1.00  0.00     0.043 A 
ATOM     14  Cl  UNL     1      91.585  -0.699  14.780  1.00  0.00    -0.084 Cl
ATOM     15  C   UNL     1      89.905  -0.653  14.391  1.00  0.00     0.053 A 
ATOM     16  C   UNL     1      89.324  -1.620  13.572  1.00  0.00     0.076 A 
ATOM     17  C   UNL     1      89.125   0.381  14.910  1.00  0.00     0.023 A 
ATOM     18  C   UNL     1      87.962  -1.556  13.273  1.00  0.00     0.040 A 
ATOM     19  C   UNL     1      87.764   0.446  14.612  1.00  0.00     0.028 A 
BRANCH  16  20
ATOM     20  C   UNL     1      90.125  -2.743  12.994  1.00  0.00     0.417 C 
ATOM     21  F   UNL     1      90.806  -3.464  13.932  1.00  0.00    -0.166 F 
ATOM     22  F   UNL     1      89.372  -3.655  12.316  1.00  0.00    -0.166 F 
ATOM     23  F   UNL     1      91.067  -2.309  12.108  1.00  0.00    -0.166 F 
ENDBRANCH  16  20
ENDBRANCH   8  13
ENDBRANCH   1   7
BRANCH   2  24
ATOM     24  O   UNL     1      79.953   0.407   8.452  1.00  0.00    -0.457 OA
BRANCH  24  25
ATOM     25  C   UNL     1      80.089   1.484   7.592  1.00  0.00     0.131 A 
ATOM     26  C   UNL     1      79.170   2.509   7.644  1.00  0.00     0.081 A 
ATOM     27  C   UNL     1      81.143   1.506   6.703  1.00  0.00     0.067 A 
ATOM     28  C   UNL     1      79.352   3.564   6.764  1.00  0.00     0.131 A 
ATOM     29  C   UNL     1      81.236   2.605   5.865  1.00  0.00     0.116 A 
ATOM     30  N   UNL     1      80.364   3.639   5.872  1.00  0.00    -0.251 NA
BRANCH  28  31
ATOM     31  C   UNL     1      78.424   4.682   6.759  1.00  0.00     0.269 C 
ATOM     32  O   UNL     1      77.607   4.830   7.686  1.00  0.00    -0.268 OA
ATOM     33  N   UNL     1      78.514   5.579   5.688  1.00  0.00    -0.354 N 
ATOM     34  C   UNL     1      77.678   6.751   5.553  1.00  0.00     0.143 C 
ATOM     35  H   UNL     1      79.224   5.423   4.978  1.00  0.00     0.163 HD
ENDBRANCH  28  31
ENDBRANCH  24  25
ENDBRANCH   2  24
TORSDOF 6
ENDMDL
MODEL 8
REMARK VINA RESULT:    -7.285      7.288     11.010
REMARK INTER + INTRA:         -10.887
REMARK INTER:                 -10.019
REMARK INTRA:                  -0.867
REMARK UNBOUND:                -1.046
REMARK SMILES CNC(=O)c1cc(Oc2ccc(NC(=O)Nc3ccc(Cl)c(C(F)(F)F)c3)cc2)ccn1
REMARK SMILES IDX 12 1 9 2 11 3 28 4 10 5 29 6 13 7 16 8 14 9 15 11 17 13
REMARK SMILES IDX 21 14 20 15 22 16 19 17 27 18 18 19 23 20 24 21 25 22 26 23
REMARK SMILES IDX 8 24 7 25 6 26 30 27 5 28 31 29 32 30 3 31 4 32 2 33 1 34
REMARK H PARENT 16 10 13 12 2 35
REMARK Flexibility Score: inf
ROOT
ATOM      1  C   UNL     1      85.866   2.795  11.900  1.00  0.00     0.043 A 
ATOM      2  C   UNL     1      86.215   0.406  13.258  1.00  0.00     0.127 A 
ATOM      3  C   UNL     1      84.925   1.788  11.753  1.00  0.00     0.030 A 
ATOM      4  C   UNL     1      86.978   2.631  12.709  1.00  0.00     0.030 A 
ATOM      5  C   UNL     1      85.101   0.586  12.438  1.00  0.00     0.049 A 
ATOM      6  C   UNL     1      87.153   1.428  13.394  1.00  0.00     0.049 A 
ENDROOT
BRANCH   1   7
ATOM      7  N   UNL     1      85.688   4.015  11.206  1.00  0.00    -0.308 N 
ATOM      8  N   UNL     1      85.300   6.235  10.703  1.00  0.00    -0.308 N 
ATOM      9  C   UNL     1      85.397   5.279  11.743  1.00  0.00     0.323 C 
ATOM     10  H   UNL     1      85.447   5.884   9.761  1.00  0.00     0.171 HD
ATOM     11  O   UNL     1      85.248   5.527  12.936  1.00  0.00    -0.248 OA
ATOM     12  H   UNL     1      85.784   3.960  10.196  1.00  0.00     0.171 HD
BRANCH   8  13
ATOM     13  C   UNL     1      85.026   7.601  10.798  1.00  0.00     0.043 A 
ATOM     14  Cl  UNL     1      84.178  12.026  11.087  1.00  0.00    -0.084 Cl
ATOM     15  C   UNL     1      84.481  10.330  10.987  1.00  0.00     0.053 A 
ATOM     16  C   UNL     1      83.606   9.403  11.553  1.00  0.00     0.076 A 
ATOM     17  C   UNL     1      85.630   9.892  10.328  1.00  0.00     0.023 A 
ATOM     18  C   UNL     1      83.878   8.038  11.458  1.00  0.00     0.040 A 
ATOM     19  C   UNL     1      85.902   8.527  10.233  1.00  0.00     0.028 A 
BRANCH  16  20
ATOM     20  C   UNL     1      82.366   9.832  12.270  1.00  0.00     0.417 C 
ATOM     21  F   UNL     1      81.507  10.551  11.489  1.00  0.00    -0.166 F 
ATOM     22  F   UNL     1      81.628   8.789  12.749  1.00  0.00    -0.166 F 
ATOM     23  F   UNL     1      82.634  10.622  13.348  1.00  0.00    -0.166 F 
ENDBRANCH  16  20
ENDBRANCH   8  13
ENDBRANCH   1   7
BRANCH   2  24
ATOM     24  O   UNL     1      86.388  -0.769  13.923  1.00  0.00    -0.457 OA
BRANCH  24  25
ATOM     25  C   UNL     1      87.433  -1.586  13.526  1.00  0.00     0.131 A 
ATOM     26  C   UNL     1      87.490  -2.020  12.219  1.00  0.00     0.081 A 
ATOM     27  C   UNL     1      88.393  -1.946  14.448  1.00  0.00     0.067 A 
ATOM     28  C   UNL     1      88.557  -2.835  11.872  1.00  0.00     0.131 A 
ATOM     29  C   UNL     1      89.419  -2.764  14.001  1.00  0.00     0.116 A 
ATOM     30  N   UNL     1      89.525  -3.219  12.732  1.00  0.00    -0.251 NA
BRANCH  28  31
ATOM     31  C   UNL     1      88.686  -3.332  10.513  1.00  0.00     0.269 C 
ATOM     32  O   UNL     1      88.757  -2.542   9.554  1.00  0.00    -0.268 OA
ATOM     33  N   UNL     1      88.751  -4.721  10.347  1.00  0.00    -0.354 N 
ATOM     34  C   UNL     1      88.903  -5.367   9.063  1.00  0.00     0.143 C 
ATOM     35  H   UNL     1      88.721  -5.313  11.172  1.00  0.00     0.163 HD
ENDBRANCH  28  31
ENDBRANCH  24  25
ENDBRANCH   2  24
TORSDOF 6
ENDMDL
MODEL 9
REMARK VINA RESULT:    -7.279      2.401      2.855
REMARK INTER + INTRA:         -10.878
REMARK INTER:                  -9.958
REMARK INTRA:                  -0.919
REMARK UNBOUND:                -1.046
REMARK SMILES CNC(=O)c1cc(Oc2ccc(NC(=O)Nc3ccc(Cl)c(C(F)(F)F)c3)cc2)ccn1
REMARK SMILES IDX 12 1 9 2 11 3 28 4 10 5 29 6 13 7 16 8 14 9 15 11 17 13
REMARK SMILES IDX 21 14 20 15 22 16 19 17 27 18 18 19 23 20 24 21 25 22 26 23
REMARK SMILES IDX 8 24 7 25 6 26 30 27 5 28 31 29 32 30 3 31 4 32 2 33 1 34
REMARK H PARENT 16 10 13 12 2 35
REMARK Flexibility Score: inf
ROOT
ATOM      1  C   UNL     1      83.638   0.440  10.843  1.00  0.00     0.043 A 
ATOM      2  C   UNL     1      80.937   0.060  10.363  1.00  0.00     0.127 A 
ATOM      3  C   UNL     1      83.235  -0.606  10.029  1.00  0.00     0.030 A 
ATOM      4  C   UNL     1      82.719   1.300  11.422  1.00  0.00     0.030 A 
ATOM      5  C   UNL     1      81.875  -0.797   9.787  1.00  0.00     0.049 A 
ATOM      6  C   UNL     1      81.358   1.108  11.180  1.00  0.00     0.049 A 
ENDROOT
BRANCH   1   7
ATOM      7  N   UNL     1      85.018   0.634  11.088  1.00  0.00    -0.308 N 
ATOM      8  N   UNL     1      87.102   0.673  12.082  1.00  0.00    -0.308 N 
ATOM      9  C   UNL     1      85.743   0.317  12.248  1.00  0.00     0.323 C 
ATOM     10  H   UNL     1      87.346   1.090  11.187  1.00  0.00     0.171 HD
ATOM     11  O   UNL     1      85.273  -0.195  13.260  1.00  0.00    -0.248 OA
ATOM     12  H   UNL     1      85.541   1.055  10.326  1.00  0.00     0.171 HD
BRANCH   8  13
ATOM     13  C   UNL     1      88.157   0.531  12.985  1.00  0.00     0.043 A 
ATOM     14  Cl  UNL     1      91.561   0.030  15.908  1.00  0.00    -0.084 Cl
ATOM     15  C   UNL     1      90.264   0.246  14.791  1.00  0.00     0.053 A 
ATOM     16  C   UNL     1      89.858   1.517  14.389  1.00  0.00     0.076 A 
ATOM     17  C   UNL     1      89.616  -0.884  14.291  1.00  0.00     0.023 A 
ATOM     18  C   UNL     1      88.804   1.661  13.485  1.00  0.00     0.040 A 
ATOM     19  C   UNL     1      88.562  -0.741  13.387  1.00  0.00     0.028 A 
BRANCH  16  20
ATOM     20  C   UNL     1      90.525   2.753  14.903  1.00  0.00     0.417 C 
ATOM     21  F   UNL     1      91.863   2.801  14.636  1.00  0.00    -0.166 F 
ATOM     22  F   UNL     1      90.013   3.904  14.380  1.00  0.00    -0.166 F 
ATOM     23  F   UNL     1      90.414   2.880  16.256  1.00  0.00    -0.166 F 
ENDBRANCH  16  20
ENDBRANCH   8  13
ENDBRANCH   1   7
BRANCH   2  24
ATOM     24  O   UNL     1      79.609  -0.128  10.128  1.00  0.00    -0.457 OA
BRANCH  24  25
ATOM     25  C   UNL     1      78.875   0.957   9.678  1.00  0.00     0.131 A 
ATOM     26  C   UNL     1      79.299   1.639   8.558  1.00  0.00     0.081 A 
ATOM     27  C   UNL     1      77.736   1.328  10.360  1.00  0.00     0.067 A 
ATOM     28  C   UNL     1      78.529   2.716   8.148  1.00  0.00     0.131 A 
ATOM     29  C   UNL     1      77.036   2.419   9.869  1.00  0.00     0.116 A 
ATOM     30  N   UNL     1      77.405   3.125   8.777  1.00  0.00    -0.251 NA
BRANCH  28  31
ATOM     31  C   UNL     1      78.911   3.486   6.977  1.00  0.00     0.269 C 
ATOM     32  O   UNL     1      78.763   4.722   6.956  1.00  0.00    -0.268 OA
ATOM     33  N   UNL     1      79.466   2.779   5.904  1.00  0.00    -0.354 N 
ATOM     34  C   UNL     1      79.917   3.404   4.681  1.00  0.00     0.143 C 
ATOM     35  H   UNL     1      79.592   1.774   5.993  1.00  0.00     0.163 HD
ENDBRANCH  28  31
ENDBRANCH  24  25
ENDBRANCH   2  24
TORSDOF 6
ENDMDL
MODEL 10
REMARK VINA RESULT:    -7.217      3.067      4.324
REMARK INTER + INTRA:         -10.794
REMARK INTER:                  -9.994
REMARK INTRA:                  -0.800
REMARK UNBOUND:                -1.046
REMARK SMILES CNC(=O)c1cc(Oc2ccc(NC(=O)Nc3ccc(Cl)c(C(F)(F)F)c3)cc2)ccn1
REMARK SMILES IDX 12 1 9 2 11 3 28 4 10 5 29 6 13 7 16 8 14 9 15 11 17 13
REMARK SMILES IDX 21 14 20 15 22 16 19 17 27 18 18 19 23 20 24 21 25 22 26 23
REMARK SMILES IDX 8 24 7 25 6 26 30 27 5 28 31 29 32 30 3 31 4 32 2 33 1 34
REMARK H PARENT 16 10 13 12 2 35
REMARK Flexibility Score: inf
ROOT
ATOM      1  C   UNL     1      83.112   0.135  11.224  1.00  0.00     0.043 A 
ATOM      2  C   UNL     1      81.311   0.953   9.284  1.00  0.00     0.127 A 
ATOM      3  C   UNL     1      82.004   0.879  11.598  1.00  0.00     0.030 A 
ATOM      4  C   UNL     1      83.339  -0.207   9.901  1.00  0.00     0.030 A 
ATOM      5  C   UNL     1      81.097   1.290  10.621  1.00  0.00     0.049 A 
ATOM      6  C   UNL     1      82.431   0.205   8.924  1.00  0.00     0.049 A 
ENDROOT
BRANCH   1   7
ATOM      7  N   UNL     1      84.032  -0.282  12.214  1.00  0.00    -0.308 N 
ATOM      8  N   UNL     1      85.946  -0.565  13.474  1.00  0.00    -0.308 N 
ATOM      9  C   UNL     1      85.384   0.074  12.343  1.00  0.00     0.323 C 
ATOM     10  H   UNL     1      85.319  -1.162  14.006  1.00  0.00     0.171 HD
ATOM     11  O   UNL     1      85.994   0.827  11.590  1.00  0.00    -0.248 OA
ATOM     12  H   UNL     1      83.660  -0.917  12.915  1.00  0.00     0.171 HD
BRANCH   8  13
ATOM     13  C   UNL     1      87.252  -0.485  13.960  1.00  0.00     0.043 A 
ATOM     14  Cl  UNL     1      91.478  -0.268  15.537  1.00  0.00    -0.084 Cl
ATOM     15  C   UNL     1      89.863  -0.326  14.932  1.00  0.00     0.053 A 
ATOM     16  C   UNL     1      89.153   0.839  14.644  1.00  0.00     0.076 A 
ATOM     17  C   UNL     1      89.266  -1.572  14.734  1.00  0.00     0.023 A 
ATOM     18  C   UNL     1      87.848   0.761  14.158  1.00  0.00     0.040 A 
ATOM     19  C   UNL     1      87.961  -1.651  14.248  1.00  0.00     0.028 A 
BRANCH  16  20
ATOM     20  C   UNL     1      89.756   2.193  14.845  1.00  0.00     0.417 C 
ATOM     21  F   UNL     1      88.876   3.216  14.638  1.00  0.00    -0.166 F 
ATOM     22  F   UNL     1      90.245   2.389  16.103  1.00  0.00    -0.166 F 
ATOM     23  F   UNL     1      90.801   2.429  14.001  1.00  0.00    -0.166 F 
ENDBRANCH  16  20
ENDBRANCH   8  13
ENDBRANCH   1   7
BRANCH   2  24
ATOM     24  O   UNL     1      80.427   1.356   8.331  1.00  0.00    -0.457 OA
BRANCH  24  25
ATOM     25  C   UNL     1      79.127   0.889   8.420  1.00  0.00     0.131 A 
ATOM     26  C   UNL     1      78.867  -0.438   8.150  1.00  0.00     0.081 A 
ATOM     27  C   UNL     1      78.121   1.761   8.779  1.00  0.00     0.067 A 
ATOM     28  C   UNL     1      77.550  -0.856   8.256  1.00  0.00     0.131 A 
ATOM     29  C   UNL     1      76.838   1.245   8.857  1.00  0.00     0.116 A 
ATOM     30  N   UNL     1      76.525  -0.046   8.602  1.00  0.00    -0.251 NA
BRANCH  28  31
ATOM     31  C   UNL     1      77.197  -2.239   7.987  1.00  0.00     0.269 C 
ATOM     32  O   UNL     1      76.123  -2.520   7.423  1.00  0.00    -0.268 OA
ATOM     33  N   UNL     1      78.123  -3.218   8.366  1.00  0.00    -0.354 N 
ATOM     34  C   UNL     1      77.928  -4.633   8.145  1.00  0.00     0.143 C 
ATOM     35  H   UNL     1      78.997  -2.924   8.793  1.00  0.00     0.163 HD
ENDBRANCH  28  31
ENDBRANCH  24  25
ENDBRANCH   2  24
TORSDOF 6
ENDMDL
MODEL 11
REMARK VINA RESULT:    -7.102      3.301      4.761
REMARK INTER + INTRA:         -10.640
REMARK INTER:                  -9.908
REMARK INTRA:                  -0.731
REMARK UNBOUND:                -1.046
REMARK SMILES CNC(=O)c1cc(Oc2ccc(NC(=O)Nc3ccc(Cl)c(C(F)(F)F)c3)cc2)ccn1
REMARK SMILES IDX 12 1 9 2 11 3 28 4 10 5 29 6 13 7 16 8 14 9 15 11 17 13
REMARK SMILES IDX 21 14 20 15 22 16 19 17 27 18 18 19 23 20 24 21 25 22 26 23
REMARK SMILES IDX 8 24 7 25 6 26 30 27 5 28 31 29 32 30 3 31 4 32 2 33 1 34
REMARK H PARENT 16 10 13 12 2 35
REMARK Flexibility Score: inf
ROOT
ATOM      1  C   UNL     1      82.523   1.325  10.251  1.00  0.00     0.043 A 
ATOM      2  C   UNL     1      79.889   1.217   9.400  1.00  0.00     0.127 A 
ATOM      3  C   UNL     1      81.530   0.996  11.160  1.00  0.00     0.030 A 
ATOM      4  C   UNL     1      82.227   1.603   8.927  1.00  0.00     0.030 A 
ATOM      5  C   UNL     1      80.204   0.940  10.730  1.00  0.00     0.049 A 
ATOM      6  C   UNL     1      80.900   1.548   8.498  1.00  0.00     0.049 A 
ENDROOT
BRANCH   1   7
ATOM      7  N   UNL     1      83.868   1.381  10.686  1.00  0.00    -0.308 N 
ATOM      8  N   UNL     1      86.000   0.799  11.359  1.00  0.00    -0.308 N 
ATOM      9  C   UNL     1      84.739   0.309  10.940  1.00  0.00     0.323 C 
ATOM     10  H   UNL     1      86.088   1.810  11.413  1.00  0.00     0.171 HD
ATOM     11  O   UNL     1      84.456  -0.879  10.819  1.00  0.00    -0.248 OA
ATOM     12  H   UNL     1      84.242   2.315  10.830  1.00  0.00     0.171 HD
BRANCH   8  13
ATOM     13  C   UNL     1      87.142   0.078  11.709  1.00  0.00     0.043 A 
ATOM     14  Cl  UNL     1      90.851  -2.253  12.804  1.00  0.00    -0.084 Cl
ATOM     15  C   UNL     1      89.425  -1.364  12.409  1.00  0.00     0.053 A 
ATOM     16  C   UNL     1      88.399  -1.190  13.336  1.00  0.00     0.076 A 
ATOM     17  C   UNL     1      89.309  -0.819  11.130  1.00  0.00     0.023 A 
ATOM     18  C   UNL     1      87.257  -0.468  12.987  1.00  0.00     0.040 A 
ATOM     19  C   UNL     1      88.168  -0.097  10.780  1.00  0.00     0.028 A 
BRANCH  16  20
ATOM     20  C   UNL     1      88.484  -1.761  14.716  1.00  0.00     0.417 C 
ATOM     21  F   UNL     1      87.442  -1.398  15.520  1.00  0.00    -0.166 F 
ATOM     22  F   UNL     1      88.497  -3.125  14.739  1.00  0.00    -0.166 F 
ATOM     23  F   UNL     1      89.612  -1.368  15.374  1.00  0.00    -0.166 F 
ENDBRANCH  16  20
ENDBRANCH   8  13
ENDBRANCH   1   7
BRANCH   2  24
ATOM     24  O   UNL     1      78.595   1.165   8.981  1.00  0.00    -0.457 OA
BRANCH  24  25
ATOM     25  C   UNL     1      78.077  -0.073   8.642  1.00  0.00     0.131 A 
ATOM     26  C   UNL     1      78.816  -1.207   8.902  1.00  0.00     0.081 A 
ATOM     27  C   UNL     1      76.833  -0.144   8.052  1.00  0.00     0.067 A 
ATOM     28  C   UNL     1      78.253  -2.422   8.545  1.00  0.00     0.131 A 
ATOM     29  C   UNL     1      76.359  -1.406   7.734  1.00  0.00     0.116 A 
ATOM     30  N   UNL     1      77.040  -2.551   7.965  1.00  0.00    -0.251 NA
BRANCH  28  31
ATOM     31  C   UNL     1      78.971  -3.662   8.787  1.00  0.00     0.269 C 
ATOM     32  O   UNL     1      80.163  -3.642   9.147  1.00  0.00    -0.268 OA
ATOM     33  N   UNL     1      78.258  -4.854   8.619  1.00  0.00    -0.354 N 
ATOM     34  C   UNL     1      78.825  -6.165   8.844  1.00  0.00     0.143 C 
ATOM     35  H   UNL     1      77.277  -4.804   8.355  1.00  0.00     0.163 HD
ENDBRANCH  28  31
ENDBRANCH  24  25
ENDBRANCH   2  24
TORSDOF 6
ENDMDL
MODEL 12
REMARK VINA RESULT:    -7.099      2.593      3.790
REMARK INTER + INTRA:         -10.635
REMARK INTER:                  -9.605
REMARK INTRA:                  -1.030
REMARK UNBOUND:                -1.046
REMARK SMILES CNC(=O)c1cc(Oc2ccc(NC(=O)Nc3ccc(Cl)c(C(F)(F)F)c3)cc2)ccn1
REMARK SMILES IDX 12 1 9 2 11 3 28 4 10 5 29 6 13 7 16 8 14 9 15 11 17 13
REMARK SMILES IDX 21 14 20 15 22 16 19 17 27 18 18 19 23 20 24 21 25 22 26 23
REMARK SMILES IDX 8 24 7 25 6 26 30 27 5 28 31 29 32 30 3 31 4 32 2 33 1 34
REMARK H PARENT 16 10 13 12 2 35
REMARK Flexibility Score: inf
ROOT
ATOM      1  C   UNL     1      83.216   0.052  10.899  1.00  0.00     0.043 A 
ATOM      2  C   UNL     1      81.302   1.185   9.248  1.00  0.00     0.127 A 
ATOM      3  C   UNL     1      83.337  -0.087   9.525  1.00  0.00     0.030 A 
ATOM      4  C   UNL     1      82.158   0.745  11.464  1.00  0.00     0.030 A 
ATOM      5  C   UNL     1      82.373   0.484   8.694  1.00  0.00     0.049 A 
ATOM      6  C   UNL     1      81.194   1.316  10.631  1.00  0.00     0.049 A 
ENDROOT
BRANCH   1   7
ATOM      7  N   UNL     1      84.193  -0.527  11.742  1.00  0.00    -0.308 N 
ATOM      8  N   UNL     1      86.170  -0.985  12.845  1.00  0.00    -0.308 N 
ATOM      9  C   UNL     1      85.534  -0.142  11.902  1.00  0.00     0.323 C 
ATOM     10  H   UNL     1      85.590  -1.714  13.251  1.00  0.00     0.171 HD
ATOM     11  O   UNL     1      86.080   0.787  11.315  1.00  0.00    -0.248 OA
ATOM     12  H   UNL     1      83.878  -1.318  12.296  1.00  0.00     0.171 HD
BRANCH   8  13
ATOM     13  C   UNL     1      87.491  -0.949  13.293  1.00  0.00     0.043 A 
ATOM     14  Cl  UNL     1      91.758  -0.799  14.763  1.00  0.00    -0.084 Cl
ATOM     15  C   UNL     1      90.132  -0.878  14.189  1.00  0.00     0.053 A 
ATOM     16  C   UNL     1      89.719  -1.883  13.316  1.00  0.00     0.076 A 
ATOM     17  C   UNL     1      89.225   0.093  14.615  1.00  0.00     0.023 A 
ATOM     18  C   UNL     1      88.398  -1.919  12.868  1.00  0.00     0.040 A 
ATOM     19  C   UNL     1      87.904   0.057  14.167  1.00  0.00     0.028 A 
BRANCH  16  20
ATOM     20  C   UNL     1      90.661  -2.940  12.836  1.00  0.00     0.417 C 
ATOM     21  F   UNL     1      90.074  -3.861  12.017  1.00  0.00    -0.166 F 
ATOM     22  F   UNL     1      91.714  -2.446  12.123  1.00  0.00    -0.166 F 
ATOM     23  F   UNL     1      91.210  -3.654  13.860  1.00  0.00    -0.166 F 
ENDBRANCH  16  20
ENDBRANCH   8  13
ENDBRANCH   1   7
BRANCH   2  24
ATOM     24  O   UNL     1      80.360   1.741   8.436  1.00  0.00    -0.457 OA
BRANCH  24  25
ATOM     25  C   UNL     1      79.068   1.252   8.522  1.00  0.00     0.131 A 
ATOM     26  C   UNL     1      78.819  -0.060   8.182  1.00  0.00     0.081 A 
ATOM     27  C   UNL     1      78.059   2.089   8.948  1.00  0.00     0.067 A 
ATOM     28  C   UNL     1      77.509  -0.501   8.287  1.00  0.00     0.131 A 
ATOM     29  C   UNL     1      76.783   1.552   9.019  1.00  0.00     0.116 A 
ATOM     30  N   UNL     1      76.481   0.274   8.697  1.00  0.00    -0.251 NA
BRANCH  28  31
ATOM     31  C   UNL     1      77.168  -1.871   7.946  1.00  0.00     0.269 C 
ATOM     32  O   UNL     1      76.138  -2.123   7.292  1.00  0.00    -0.268 OA
ATOM     33  N   UNL     1      78.055  -2.871   8.362  1.00  0.00    -0.354 N 
ATOM     34  C   UNL     1      77.868  -4.276   8.079  1.00  0.00     0.143 C 
ATOM     35  H   UNL     1      78.896  -2.599   8.864  1.00  0.00     0.163 HD
ENDBRANCH  28  31
ENDBRANCH  24  25
ENDBRANCH   2  24
TORSDOF 6
ENDMDL
MODEL 13
REMARK VINA RESULT:    -7.050      5.508     11.916
REMARK INTER + INTRA:         -10.568
REMARK INTER:                  -9.655
REMARK INTRA:                  -0.914
REMARK UNBOUND:                -1.046
REMARK SMILES CNC(=O)c1cc(Oc2ccc(NC(=O)Nc3ccc(Cl)c(C(F)(F)F)c3)cc2)ccn1
REMARK SMILES IDX 12 1 9 2 11 3 28 4 10 5 29 6 13 7 16 8 14 9 15 11 17 13
REMARK SMILES IDX 21 14 20 15 22 16 19 17 27 18 18 19 23 20 24 21 25 22 26 23
REMARK SMILES IDX 8 24 7 25 6 26 30 27 5 28 31 29 32 30 3 31 4 32 2 33 1 34
REMARK H PARENT 16 10 13 12 2 35
REMARK Flexibility Score: inf
ROOT
ATOM      1  C   UNL     1      85.843  -0.202  11.746  1.00  0.00     0.043 A 
ATOM      2  C   UNL     1      87.512  -1.879  13.186  1.00  0.00     0.127 A 
ATOM      3  C   UNL     1      85.847  -0.129  13.129  1.00  0.00     0.030 A 
ATOM      4  C   UNL     1      86.655  -1.096  11.067  1.00  0.00     0.030 A 
ATOM      5  C   UNL     1      86.688  -0.974  13.854  1.00  0.00     0.049 A 
ATOM      6  C   UNL     1      87.495  -1.940  11.793  1.00  0.00     0.049 A 
ENDROOT
BRANCH   1   7
ATOM      7  N   UNL     1      84.990   0.655  11.010  1.00  0.00    -0.308 N 
ATOM      8  N   UNL     1      83.228   1.489   9.773  1.00  0.00    -0.308 N 
ATOM      9  C   UNL     1      83.758   0.344  10.414  1.00  0.00     0.323 C 
ATOM     10  H   UNL     1      83.791   2.333   9.833  1.00  0.00     0.171 HD
ATOM     11  O   UNL     1      83.214  -0.756  10.441  1.00  0.00    -0.248 OA
ATOM     12  H   UNL     1      85.318   1.612  10.906  1.00  0.00     0.171 HD
BRANCH   8  13
ATOM     13  C   UNL     1      82.032   1.616   9.064  1.00  0.00     0.043 A 
ATOM     14  Cl  UNL     1      78.185   2.041   6.740  1.00  0.00    -0.084 Cl
ATOM     15  C   UNL     1      79.642   1.871   7.648  1.00  0.00     0.053 A 
ATOM     16  C   UNL     1      79.619   1.522   8.997  1.00  0.00     0.076 A 
ATOM     17  C   UNL     1      80.861   2.094   7.006  1.00  0.00     0.023 A 
ATOM     18  C   UNL     1      80.814   1.394   9.707  1.00  0.00     0.040 A 
ATOM     19  C   UNL     1      82.056   1.966   7.714  1.00  0.00     0.028 A 
BRANCH  16  20
ATOM     20  C   UNL     1      78.334   1.277   9.722  1.00  0.00     0.417 C 
ATOM     21  F   UNL     1      77.645   0.194   9.257  1.00  0.00    -0.166 F 
ATOM     22  F   UNL     1      78.498   1.052  11.057  1.00  0.00    -0.166 F 
ATOM     23  F   UNL     1      77.473   2.330   9.628  1.00  0.00    -0.166 F 
ENDBRANCH  16  20
ENDBRANCH   8  13
ENDBRANCH   1   7
BRANCH   2  24
ATOM     24  O   UNL     1      88.330  -2.705  13.893  1.00  0.00    -0.457 OA
BRANCH  24  25
ATOM     25  C   UNL     1      89.671  -2.366  13.975  1.00  0.00     0.131 A 
ATOM     26  C   UNL     1      90.032  -1.188  14.591  1.00  0.00     0.081 A 
ATOM     27  C   UNL     1      90.613  -3.218  13.440  1.00  0.00     0.067 A 
ATOM     28  C   UNL     1      91.386  -0.896  14.648  1.00  0.00     0.131 A 
ATOM     29  C   UNL     1      91.941  -2.835  13.549  1.00  0.00     0.116 A 
ATOM     30  N   UNL     1      92.353  -1.691  14.140  1.00  0.00    -0.251 NA
BRANCH  28  31
ATOM     31  C   UNL     1      91.845   0.329  15.281  1.00  0.00     0.269 C 
ATOM     32  O   UNL     1      91.054   1.267  15.492  1.00  0.00    -0.268 OA
ATOM     33  N   UNL     1      93.193   0.386  15.655  1.00  0.00    -0.354 N 
ATOM     34  C   UNL     1      93.793   1.524  16.314  1.00  0.00     0.143 C 
ATOM     35  H   UNL     1      93.781  -0.425  15.485  1.00  0.00     0.163 HD
ENDBRANCH  28  31
ENDBRANCH  24  25
ENDBRANCH   2  24
TORSDOF 6
ENDMDL
MODEL 14
REMARK VINA RESULT:    -6.995      8.174     10.211
REMARK INTER + INTRA:         -10.495
REMARK INTER:                  -9.991
REMARK INTRA:                  -0.504
REMARK UNBOUND:                -1.046
REMARK SMILES CNC(=O)c1cc(Oc2ccc(NC(=O)Nc3ccc(Cl)c(C(F)(F)F)c3)cc2)ccn1
REMARK SMILES IDX 12 1 9 2 11 3 28 4 10 5 29 6 13 7 16 8 14 9 15 11 17 13
REMARK SMILES IDX 21 14 20 15 22 16 19 17 27 18 18 19 23 20 24 21 25 22 26 23
REMARK SMILES IDX 8 24 7 25 6 26 30 27 5 28 31 29 32 30 3 31 4 32 2 33 1 34
REMARK H PARENT 16 10 13 12 2 35
REMARK Flexibility Score: inf
ROOT
ATOM      1  C   UNL     1      85.615   5.206  11.606  1.00  0.00     0.043 A 
ATOM      2  C   UNL     1      85.308   2.462  11.379  1.00  0.00     0.127 A 
ATOM      3  C   UNL     1      85.489   4.639  10.348  1.00  0.00     0.030 A 
ATOM      4  C   UNL     1      85.592   4.429  12.753  1.00  0.00     0.030 A 
ATOM      5  C   UNL     1      85.333   3.258  10.234  1.00  0.00     0.049 A 
ATOM      6  C   UNL     1      85.438   3.047  12.638  1.00  0.00     0.049 A 
ENDROOT
BRANCH   1   7
ATOM      7  N   UNL     1      85.771   6.607  11.722  1.00  0.00    -0.308 N 
ATOM      8  N   UNL     1      85.455   8.888  11.550  1.00  0.00    -0.308 N 
ATOM      9  C   UNL     1      84.940   7.615  11.208  1.00  0.00     0.323 C 
ATOM     10  H   UNL     1      86.315   8.889  12.093  1.00  0.00     0.171 HD
ATOM     11  O   UNL     1      83.916   7.427  10.558  1.00  0.00    -0.248 OA
ATOM     12  H   UNL     1      86.589   6.913  12.243  1.00  0.00     0.171 HD
BRANCH   8  13
ATOM     13  C   UNL     1      84.941  10.148  11.240  1.00  0.00     0.043 A 
ATOM     14  Cl  UNL     1      83.316  14.235  10.220  1.00  0.00    -0.084 Cl
ATOM     15  C   UNL     1      83.915  12.667  10.620  1.00  0.00     0.053 A 
ATOM     16  C   UNL     1      83.140  11.754  11.333  1.00  0.00     0.076 A 
ATOM     17  C   UNL     1      85.205  12.321  10.216  1.00  0.00     0.023 A 
ATOM     18  C   UNL     1      83.652  10.494  11.644  1.00  0.00     0.040 A 
ATOM     19  C   UNL     1      85.718  11.061  10.526  1.00  0.00     0.028 A 
BRANCH  16  20
ATOM     20  C   UNL     1      81.754  12.088  11.786  1.00  0.00     0.417 C 
ATOM     21  F   UNL     1      80.892  12.340  10.757  1.00  0.00    -0.166 F 
ATOM     22  F   UNL     1      81.165  11.094  12.511  1.00  0.00    -0.166 F 
ATOM     23  F   UNL     1      81.717  13.197  12.579  1.00  0.00    -0.166 F 
ENDBRANCH  16  20
ENDBRANCH   8  13
ENDBRANCH   1   7
BRANCH   2  24
ATOM     24  O   UNL     1      85.159   1.113  11.267  1.00  0.00    -0.457 OA
BRANCH  24  25
ATOM     25  C   UNL     1      83.878   0.620  11.084  1.00  0.00     0.131 A 
ATOM     26  C   UNL     1      83.710  -0.634  10.539  1.00  0.00     0.081 A 
ATOM     27  C   UNL     1      82.800   1.396  11.452  1.00  0.00     0.067 A 
ATOM     28  C   UNL     1      82.409  -1.082  10.378  1.00  0.00     0.131 A 
ATOM     29  C   UNL     1      81.539   0.858  11.250  1.00  0.00     0.116 A 
ATOM     30  N   UNL     1      81.315  -0.366  10.720  1.00  0.00    -0.251 NA
BRANCH  28  31
ATOM     31  C   UNL     1      82.150  -2.394   9.810  1.00  0.00     0.269 C 
ATOM     32  O   UNL     1      83.077  -3.212   9.661  1.00  0.00    -0.268 OA
ATOM     33  N   UNL     1      80.825  -2.691   9.469  1.00  0.00    -0.354 N 
ATOM     34  C   UNL     1      80.406  -3.959   8.917  1.00  0.00     0.143 C 
ATOM     35  H   UNL     1      80.108  -1.993   9.645  1.00  0.00     0.163 HD
ENDBRANCH  28  31
ENDBRANCH  24  25
ENDBRANCH   2  24
TORSDOF 6
ENDMDL
MODEL 15
REMARK VINA RESULT:    -6.987      6.087     10.941
REMARK INTER + INTRA:         -10.484
REMARK INTER:                  -9.561
REMARK INTRA:                  -0.923
REMARK UNBOUND:                -1.046
REMARK SMILES CNC(=O)c1cc(Oc2ccc(NC(=O)Nc3ccc(Cl)c(C(F)(F)F)c3)cc2)ccn1
REMARK SMILES IDX 12 1 9 2 11 3 28 4 10 5 29 6 13 7 16 8 14 9 15 11 17 13
REMARK SMILES IDX 21 14 20 15 22 16 19 17 27 18 18 19 23 20 24 21 25 22 26 23
REMARK SMILES IDX 8 24 7 25 6 26 30 27 5 28 31 29 32 30 3 31 4 32 2 33 1 34
REMARK H PARENT 16 10 13 12 2 35
REMARK Flexibility Score: inf
ROOT
ATOM      1  C   UNL     1      81.293   0.698   9.881  1.00  0.00     0.043 A 
ATOM      2  C   UNL     1      83.595   2.010  10.688  1.00  0.00     0.127 A 
ATOM      3  C   UNL     1      81.634   0.705  11.224  1.00  0.00     0.030 A 
ATOM      4  C   UNL     1      82.079   1.332   8.933  1.00  0.00     0.030 A 
ATOM      5  C   UNL     1      82.793   1.367  11.630  1.00  0.00     0.049 A 
ATOM      6  C   UNL     1      83.239   1.993   9.340  1.00  0.00     0.049 A 
ENDROOT
BRANCH   1   7
ATOM      7  N   UNL     1      80.117   0.028   9.469  1.00  0.00    -0.308 N 
ATOM      8  N   UNL     1      78.646  -1.552   8.648  1.00  0.00    -0.308 N 
ATOM      9  C   UNL     1      80.003  -1.261   8.923  1.00  0.00     0.323 C 
ATOM     10  H   UNL     1      77.979  -0.818   8.875  1.00  0.00     0.171 HD
ATOM     11  O   UNL     1      80.939  -2.027   8.713  1.00  0.00    -0.248 OA
ATOM     12  H   UNL     1      79.253   0.550   9.587  1.00  0.00     0.171 HD
BRANCH   8  13
ATOM     13  C   UNL     1      78.096  -2.714   8.104  1.00  0.00     0.043 A 
ATOM     14  Cl  UNL     1      76.305  -6.451   6.311  1.00  0.00    -0.084 Cl
ATOM     15  C   UNL     1      76.997  -5.035   7.016  1.00  0.00     0.053 A 
ATOM     16  C   UNL     1      77.560  -5.061   8.291  1.00  0.00     0.076 A 
ATOM     17  C   UNL     1      76.983  -3.848   6.284  1.00  0.00     0.023 A 
ATOM     18  C   UNL     1      78.110  -3.901   8.836  1.00  0.00     0.040 A 
ATOM     19  C   UNL     1      77.533  -2.686   6.828  1.00  0.00     0.028 A 
BRANCH  16  20
ATOM     20  C   UNL     1      77.593  -6.314   9.108  1.00  0.00     0.417 C 
ATOM     21  F   UNL     1      78.150  -6.143  10.343  1.00  0.00    -0.166 F 
ATOM     22  F   UNL     1      76.358  -6.843   9.342  1.00  0.00    -0.166 F 
ATOM     23  F   UNL     1      78.314  -7.306   8.513  1.00  0.00    -0.166 F 
ENDBRANCH  16  20
ENDBRANCH   8  13
ENDBRANCH   1   7
BRANCH   2  24
ATOM     24  O   UNL     1      84.727   2.654  11.084  1.00  0.00    -0.457 OA
BRANCH  24  25
ATOM     25  C   UNL     1      85.866   1.890  11.282  1.00  0.00     0.131 A 
ATOM     26  C   UNL     1      86.051   1.256  12.491  1.00  0.00     0.081 A 
ATOM     27  C   UNL     1      86.788   1.781  10.263  1.00  0.00     0.067 A 
ATOM     28  C   UNL     1      87.205   0.503  12.638  1.00  0.00     0.131 A 
ATOM     29  C   UNL     1      87.909   1.004  10.509  1.00  0.00     0.116 A 
ATOM     30  N   UNL     1      88.142   0.361  11.675  1.00  0.00    -0.251 NA
BRANCH  28  31
ATOM     31  C   UNL     1      87.471  -0.195  13.884  1.00  0.00     0.269 C 
ATOM     32  O   UNL     1      87.040   0.252  14.964  1.00  0.00    -0.268 OA
ATOM     33  N   UNL     1      88.202  -1.386  13.803  1.00  0.00    -0.354 N 
ATOM     34  C   UNL     1      88.526  -2.205  14.949  1.00  0.00     0.143 C 
ATOM     35  H   UNL     1      88.498  -1.716  12.889  1.00  0.00     0.163 HD
ENDBRANCH  28  31
ENDBRANCH  24  25
ENDBRANCH   2  24
TORSDOF 6
ENDMDL
MODEL 16
REMARK VINA RESULT:    -6.937      5.688     12.202
REMARK INTER + INTRA:         -10.416
REMARK INTER:                  -9.521
REMARK INTRA:                  -0.895
REMARK UNBOUND:                -1.046
REMARK SMILES CNC(=O)c1cc(Oc2ccc(NC(=O)Nc3ccc(Cl)c(C(F)(F)F)c3)cc2)ccn1
REMARK SMILES IDX 12 1 9 2 11 3 28 4 10 5 29 6 13 7 16 8 14 9 15 11 17 13
REMARK SMILES IDX 21 14 20 15 22 16 19 17 27 18 18 19 23 20 24 21 25 22 26 23
REMARK SMILES IDX 8 24 7 25 6 26 30 27 5 28 31 29 32 30 3 31 4 32 2 33 1 34
REMARK H PARENT 16 10 13 12 2 35
REMARK Flexibility Score: inf
ROOT
ATOM      1  C   UNL     1      85.526  -0.232  11.550  1.00  0.00     0.043 A 
ATOM      2  C   UNL     1      87.291  -1.785  13.016  1.00  0.00     0.127 A 
ATOM      3  C   UNL     1      85.467  -0.202  12.934  1.00  0.00     0.030 A 
ATOM      4  C   UNL     1      86.449  -1.022  10.884  1.00  0.00     0.030 A 
ATOM      5  C   UNL     1      86.356  -0.984  13.672  1.00  0.00     0.049 A 
ATOM      6  C   UNL     1      87.338  -1.804  11.623  1.00  0.00     0.049 A 
ENDROOT
BRANCH   1   7
ATOM      7  N   UNL     1      84.625   0.561  10.802  1.00  0.00    -0.308 N 
ATOM      8  N   UNL     1      82.797   1.281   9.588  1.00  0.00    -0.308 N 
ATOM      9  C   UNL     1      83.380   0.187  10.271  1.00  0.00     0.323 C 
ATOM     10  H   UNL     1      83.339   2.141   9.580  1.00  0.00     0.171 HD
ATOM     11  O   UNL     1      82.868  -0.923  10.379  1.00  0.00    -0.248 OA
ATOM     12  H   UNL     1      84.923   1.518  10.632  1.00  0.00     0.171 HD
BRANCH   8  13
ATOM     13  C   UNL     1      81.573   1.339   8.919  1.00  0.00     0.043 A 
ATOM     14  Cl  UNL     1      77.633   1.529   6.722  1.00  0.00    -0.084 Cl
ATOM     15  C   UNL     1      79.127   1.455   7.583  1.00  0.00     0.053 A 
ATOM     16  C   UNL     1      79.159   1.421   8.977  1.00  0.00     0.076 A 
ATOM     17  C   UNL     1      80.318   1.431   6.857  1.00  0.00     0.023 A 
ATOM     18  C   UNL     1      80.383   1.363   9.646  1.00  0.00     0.040 A 
ATOM     19  C   UNL     1      81.541   1.372   7.525  1.00  0.00     0.028 A 
BRANCH  16  20
ATOM     20  C   UNL     1      77.905   1.448   9.791  1.00  0.00     0.417 C 
ATOM     21  F   UNL     1      77.232   2.633   9.715  1.00  0.00    -0.166 F 
ATOM     22  F   UNL     1      77.000   0.496   9.424  1.00  0.00    -0.166 F 
ATOM     23  F   UNL     1      78.141   1.242  11.118  1.00  0.00    -0.166 F 
ENDBRANCH  16  20
ENDBRANCH   8  13
ENDBRANCH   1   7
BRANCH   2  24
ATOM     24  O   UNL     1      88.157  -2.549  13.736  1.00  0.00    -0.457 OA
BRANCH  24  25
ATOM     25  C   UNL     1      89.421  -2.037  13.976  1.00  0.00     0.131 A 
ATOM     26  C   UNL     1      90.526  -2.744  13.556  1.00  0.00     0.081 A 
ATOM     27  C   UNL     1      89.544  -0.829  14.630  1.00  0.00     0.067 A 
ATOM     28  C   UNL     1      91.768  -2.188  13.819  1.00  0.00     0.131 A 
ATOM     29  C   UNL     1      90.830  -0.358  14.845  1.00  0.00     0.116 A 
ATOM     30  N   UNL     1      91.949  -1.009  14.455  1.00  0.00    -0.251 NA
BRANCH  28  31
ATOM     31  C   UNL     1      92.980  -2.874  13.406  1.00  0.00     0.269 C 
ATOM     32  O   UNL     1      92.918  -3.955  12.791  1.00  0.00    -0.268 OA
ATOM     33  N   UNL     1      94.198  -2.253  13.710  1.00  0.00    -0.354 N 
ATOM     34  C   UNL     1      95.487  -2.798  13.346  1.00  0.00     0.143 C 
ATOM     35  H   UNL     1      94.183  -1.355  14.185  1.00  0.00     0.163 HD
ENDBRANCH  28  31
ENDBRANCH  24  25
ENDBRANCH   2  24
TORSDOF 6
ENDMDL
MODEL 17
REMARK VINA RESULT:    -6.845      8.303     11.530
REMARK INTER + INTRA:         -10.292
REMARK INTER:                  -9.366
REMARK INTRA:                  -0.926
REMARK UNBOUND:                -1.046
REMARK SMILES CNC(=O)c1cc(Oc2ccc(NC(=O)Nc3ccc(Cl)c(C(F)(F)F)c3)cc2)ccn1
REMARK SMILES IDX 12 1 9 2 11 3 28 4 10 5 29 6 13 7 16 8 14 9 15 11 17 13
REMARK SMILES IDX 21 14 20 15 22 16 19 17 27 18 18 19 23 20 24 21 25 22 26 23
REMARK SMILES IDX 8 24 7 25 6 26 30 27 5 28 31 29 32 30 3 31 4 32 2 33 1 34
REMARK H PARENT 16 10 13 12 2 35
REMARK Flexibility Score: inf
ROOT
ATOM      1  C   UNL     1      86.002   5.462  11.506  1.00  0.00     0.043 A 
ATOM      2  C   UNL     1      87.039   3.207  10.277  1.00  0.00     0.127 A 
ATOM      3  C   UNL     1      85.135   4.508  10.999  1.00  0.00     0.030 A 
ATOM      4  C   UNL     1      87.376   5.313  11.411  1.00  0.00     0.030 A 
ATOM      5  C   UNL     1      85.658   3.372  10.381  1.00  0.00     0.049 A 
ATOM      6  C   UNL     1      87.898   4.177  10.792  1.00  0.00     0.049 A 
ENDROOT
BRANCH   1   7
ATOM      7  N   UNL     1      85.473   6.614  12.133  1.00  0.00    -0.308 N 
ATOM      8  N   UNL     1      84.342   8.586  12.543  1.00  0.00    -0.308 N 
ATOM      9  C   UNL     1      84.649   7.603  11.572  1.00  0.00     0.323 C 
ATOM     10  H   UNL     1      84.746   8.442  13.464  1.00  0.00     0.171 HD
ATOM     11  O   UNL     1      84.249   7.618  10.411  1.00  0.00    -0.248 OA
ATOM     12  H   UNL     1      85.724   6.733  13.111  1.00  0.00     0.171 HD
BRANCH   8  13
ATOM     13  C   UNL     1      83.559   9.733  12.404  1.00  0.00     0.043 A 
ATOM     14  Cl  UNL     1      80.991  13.420  11.956  1.00  0.00    -0.084 Cl
ATOM     15  C   UNL     1      81.993  12.025  12.125  1.00  0.00     0.053 A 
ATOM     16  C   UNL     1      83.382  12.115  12.041  1.00  0.00     0.076 A 
ATOM     17  C   UNL     1      81.387  10.788  12.348  1.00  0.00     0.023 A 
ATOM     18  C   UNL     1      84.166  10.969  12.180  1.00  0.00     0.040 A 
ATOM     19  C   UNL     1      82.170   9.642  12.488  1.00  0.00     0.028 A 
BRANCH  16  20
ATOM     20  C   UNL     1      84.069  13.421  11.800  1.00  0.00     0.417 C 
ATOM     21  F   UNL     1      83.713  14.015  10.624  1.00  0.00    -0.166 F 
ATOM     22  F   UNL     1      83.817  14.353  12.764  1.00  0.00    -0.166 F 
ATOM     23  F   UNL     1      85.426  13.295  11.754  1.00  0.00    -0.166 F 
ENDBRANCH  16  20
ENDBRANCH   8  13
ENDBRANCH   1   7
BRANCH   2  24
ATOM     24  O   UNL     1      87.549   2.099   9.672  1.00  0.00    -0.457 OA
BRANCH  24  25
ATOM     25  C   UNL     1      87.092   0.864  10.101  1.00  0.00     0.131 A 
ATOM     26  C   UNL     1      87.325   0.474  11.402  1.00  0.00     0.081 A 
ATOM     27  C   UNL     1      86.414   0.053   9.217  1.00  0.00     0.067 A 
ATOM     28  C   UNL     1      86.846  -0.770  11.782  1.00  0.00     0.131 A 
ATOM     29  C   UNL     1      85.976  -1.172   9.695  1.00  0.00     0.116 A 
ATOM     30  N   UNL     1      86.176  -1.606  10.959  1.00  0.00    -0.251 NA
BRANCH  28  31
ATOM     31  C   UNL     1      87.053  -1.251  13.138  1.00  0.00     0.269 C 
ATOM     32  O   UNL     1      86.247  -0.961  14.042  1.00  0.00    -0.268 OA
ATOM     33  N   UNL     1      88.171  -2.063  13.362  1.00  0.00    -0.354 N 
ATOM     34  C   UNL     1      88.498  -2.638  14.647  1.00  0.00     0.143 C 
ATOM     35  H   UNL     1      88.774  -2.292  12.576  1.00  0.00     0.163 HD
ENDBRANCH  28  31
ENDBRANCH  24  25
ENDBRANCH   2  24
TORSDOF 6
ENDMDL
MODEL 18
REMARK VINA RESULT:    -6.752      5.545     12.455
REMARK INTER + INTRA:         -10.166
REMARK INTER:                  -9.120
REMARK INTRA:                  -1.046
REMARK UNBOUND:                -1.046
REMARK SMILES CNC(=O)c1cc(Oc2ccc(NC(=O)Nc3ccc(Cl)c(C(F)(F)F)c3)cc2)ccn1
REMARK SMILES IDX 12 1 9 2 11 3 28 4 10 5 29 6 13 7 16 8 14 9 15 11 17 13
REMARK SMILES IDX 21 14 20 15 22 16 19 17 27 18 18 19 23 20 24 21 25 22 26 23
REMARK SMILES IDX 8 24 7 25 6 26 30 27 5 28 31 29 32 30 3 31 4 32 2 33 1 34
REMARK H PARENT 16 10 13 12 2 35
REMARK Flexibility Score: inf
ROOT
ATOM      1  C   UNL     1      87.157  -0.414  13.903  1.00  0.00     0.043 A 
ATOM      2  C   UNL     1      89.837  -0.616  14.575  1.00  0.00     0.127 A 
ATOM      3  C   UNL     1      87.764  -1.660  13.902  1.00  0.00     0.030 A 
ATOM      4  C   UNL     1      87.862   0.732  14.232  1.00  0.00     0.030 A 
ATOM      5  C   UNL     1      89.113  -1.761  14.241  1.00  0.00     0.049 A 
ATOM      6  C   UNL     1      89.212   0.630  14.571  1.00  0.00     0.049 A 
ENDROOT
BRANCH   1   7
ATOM      7  N   UNL     1      85.789  -0.311  13.560  1.00  0.00    -0.308 N 
ATOM      8  N   UNL     1      83.814  -0.128  12.376  1.00  0.00    -0.308 N 
ATOM      9  C   UNL     1      85.224  -0.210  12.279  1.00  0.00     0.323 C 
ATOM     10  H   UNL     1      83.432  -0.152  13.317  1.00  0.00     0.171 HD
ATOM     11  O   UNL     1      85.854  -0.195  11.225  1.00  0.00    -0.248 OA
ATOM     12  H   UNL     1      85.141  -0.312  14.344  1.00  0.00     0.171 HD
BRANCH   8  13
ATOM     13  C   UNL     1      82.875  -0.016  11.350  1.00  0.00     0.043 A 
ATOM     14  Cl  UNL     1      79.833   0.386   8.037  1.00  0.00    -0.084 Cl
ATOM     15  C   UNL     1      80.997   0.208   9.299  1.00  0.00     0.053 A 
ATOM     16  C   UNL     1      81.483  -1.046   9.665  1.00  0.00     0.076 A 
ATOM     17  C   UNL     1      81.450   1.351   9.958  1.00  0.00     0.023 A 
ATOM     18  C   UNL     1      82.423  -1.159  10.691  1.00  0.00     0.040 A 
ATOM     19  C   UNL     1      82.389   1.239  10.984  1.00  0.00     0.028 A 
BRANCH  16  20
ATOM     20  C   UNL     1      81.022  -2.295   8.985  1.00  0.00     0.417 C 
ATOM     21  F   UNL     1      81.695  -3.413   9.385  1.00  0.00    -0.166 F 
ATOM     22  F   UNL     1      79.704  -2.575   9.197  1.00  0.00    -0.166 F 
ATOM     23  F   UNL     1      81.174  -2.238   7.631  1.00  0.00    -0.166 F 
ENDBRANCH  16  20
ENDBRANCH   8  13
ENDBRANCH   1   7
BRANCH   2  24
ATOM     24  O   UNL     1      91.154  -0.715  14.903  1.00  0.00    -0.457 OA
BRANCH  24  25
ATOM     25  C   UNL     1      92.026  -1.178  13.932  1.00  0.00     0.131 A 
ATOM     26  C   UNL     1      92.747  -2.329  14.167  1.00  0.00     0.081 A 
ATOM     27  C   UNL     1      92.152  -0.477  12.752  1.00  0.00     0.067 A 
ATOM     28  C   UNL     1      93.605  -2.750  13.163  1.00  0.00     0.131 A 
ATOM     29  C   UNL     1      93.036  -0.981  11.812  1.00  0.00     0.116 A 
ATOM     30  N   UNL     1      93.769  -2.104  11.988  1.00  0.00    -0.251 NA
BRANCH  28  31
ATOM     31  C   UNL     1      94.399  -3.955  13.336  1.00  0.00     0.269 C 
ATOM     32  O   UNL     1      94.394  -4.846  12.467  1.00  0.00    -0.268 OA
ATOM     33  N   UNL     1      95.174  -4.045  14.498  1.00  0.00    -0.354 N 
ATOM     34  C   UNL     1      96.033  -5.167  14.802  1.00  0.00     0.143 C 
ATOM     35  H   UNL     1      95.161  -3.269  15.155  1.00  0.00     0.163 HD
ENDBRANCH  28  31
ENDBRANCH  24  25
ENDBRANCH   2  24
TORSDOF 6
ENDMDL
MODEL 19
REMARK VINA RESULT:    -6.735      1.877      2.493
REMARK INTER + INTRA:         -10.144
REMARK INTER:                  -9.379
REMARK INTRA:                  -0.765
REMARK UNBOUND:                -1.046
REMARK SMILES CNC(=O)c1cc(Oc2ccc(NC(=O)Nc3ccc(Cl)c(C(F)(F)F)c3)cc2)ccn1
REMARK SMILES IDX 12 1 9 2 11 3 28 4 10 5 29 6 13 7 16 8 14 9 15 11 17 13
REMARK SMILES IDX 21 14 20 15 22 16 19 17 27 18 18 19 23 20 24 21 25 22 26 23
REMARK SMILES IDX 8 24 7 25 6 26 30 27 5 28 31 29 32 30 3 31 4 32 2 33 1 34
REMARK H PARENT 16 10 13 12 2 35
REMARK Flexibility Score: inf
ROOT
ATOM      1  C   UNL     1      82.557   1.332  10.880  1.00  0.00     0.043 A 
ATOM      2  C   UNL     1      80.652   1.285   8.869  1.00  0.00     0.127 A 
ATOM      3  C   UNL     1      81.267   0.924  11.178  1.00  0.00     0.030 A 
ATOM      4  C   UNL     1      82.914   1.718   9.598  1.00  0.00     0.030 A 
ATOM      5  C   UNL     1      80.309   0.900  10.165  1.00  0.00     0.049 A 
ATOM      6  C   UNL     1      81.954   1.694   8.586  1.00  0.00     0.049 A 
ENDROOT
BRANCH   1   7
ATOM      7  N   UNL     1      83.530   1.356  11.906  1.00  0.00    -0.308 N 
ATOM      8  N   UNL     1      85.437   0.981  13.154  1.00  0.00    -0.308 N 
ATOM      9  C   UNL     1      84.764   0.687  11.944  1.00  0.00     0.323 C 
ATOM     10  H   UNL     1      84.952   1.606  13.792  1.00  0.00     0.171 HD
ATOM     11  O   UNL     1      85.200  -0.047  11.062  1.00  0.00    -0.248 OA
ATOM     12  H   UNL     1      83.300   1.933  12.712  1.00  0.00     0.171 HD
BRANCH   8  13
ATOM     13  C   UNL     1      86.682   0.526  13.592  1.00  0.00     0.043 A 
ATOM     14  Cl  UNL     1      90.693  -0.986  15.009  1.00  0.00    -0.084 Cl
ATOM     15  C   UNL     1      89.169  -0.385  14.467  1.00  0.00     0.053 A 
ATOM     16  C   UNL     1      88.953   0.979  14.279  1.00  0.00     0.076 A 
ATOM     17  C   UNL     1      88.141  -1.295  14.217  1.00  0.00     0.023 A 
ATOM     18  C   UNL     1      87.709   1.436  13.841  1.00  0.00     0.040 A 
ATOM     19  C   UNL     1      86.897  -0.840  13.779  1.00  0.00     0.028 A 
BRANCH  16  20
ATOM     20  C   UNL     1      90.027   1.986  14.538  1.00  0.00     0.417 C 
ATOM     21  F   UNL     1      90.553   1.911  15.795  1.00  0.00    -0.166 F 
ATOM     22  F   UNL     1      91.094   1.871  13.695  1.00  0.00    -0.166 F 
ATOM     23  F   UNL     1      89.585   3.269  14.399  1.00  0.00    -0.166 F 
ENDBRANCH  16  20
ENDBRANCH   8  13
ENDBRANCH   1   7
BRANCH   2  24
ATOM     24  O   UNL     1      79.716   1.263   7.882  1.00  0.00    -0.457 OA
BRANCH  24  25
ATOM     25  C   UNL     1      79.131   2.466   7.523  1.00  0.00     0.131 A 
ATOM     26  C   UNL     1      79.503   3.070   6.341  1.00  0.00     0.081 A 
ATOM     27  C   UNL     1      78.190   3.032   8.355  1.00  0.00     0.067 A 
ATOM     28  C   UNL     1      78.888   4.272   6.027  1.00  0.00     0.131 A 
ATOM     29  C   UNL     1      77.633   4.235   7.951  1.00  0.00     0.116 A 
ATOM     30  N   UNL     1      77.960   4.872   6.804  1.00  0.00    -0.251 NA
BRANCH  28  31
ATOM     31  C   UNL     1      79.228   4.969   4.798  1.00  0.00     0.269 C 
ATOM     32  O   UNL     1      78.342   5.516   4.115  1.00  0.00    -0.268 OA
ATOM     33  N   UNL     1      80.582   5.012   4.444  1.00  0.00    -0.354 N 
ATOM     34  C   UNL     1      81.079   5.687   3.266  1.00  0.00     0.143 C 
ATOM     35  H   UNL     1      81.262   4.575   5.059  1.00  0.00     0.163 HD
ENDBRANCH  28  31
ENDBRANCH  24  25
ENDBRANCH   2  24
TORSDOF 6
ENDMDL
