obj01
  PyMOL2.5          3D                             0

 47 50  0  0  0  0  0  0  0  0999 V2000
   11.5052   62.5347   12.8392 H   0  0  0  0  0  0  0  0  0  0  0  0
    9.6663   61.5301   11.4620 H   0  0  0  0  0  0  0  0  0  0  0  0
   11.6981   57.8120   11.3011 H   0  0  0  0  0  0  0  0  0  0  0  0
   13.4910   61.1151   13.4526 H   0  0  0  0  0  0  0  0  0  0  0  0
   16.9228   58.2780   14.2155 H   0  0  0  0  0  0  0  0  0  0  0  0
   15.0934   59.9450   13.7766 H   0  0  0  0  0  0  0  0  0  0  0  0
   13.7822   54.7092   11.7488 H   0  0  0  0  0  0  0  0  0  0  0  0
   14.8272   53.2078   14.0646 H   0  0  0  0  0  0  0  0  0  0  0  0
   18.4844   51.3962   12.6805 H   0  0  0  0  0  0  0  0  0  0  0  0
   18.5804   52.9958   10.8021 H   0  0  0  0  0  0  0  0  0  0  0  0
   17.9594   54.9152    9.8031 H   0  0  0  0  0  0  0  0  0  0  0  0
   16.2993   54.5377    9.2849 H   0  0  0  0  0  0  0  0  0  0  0  0
   16.6036   55.9269   10.3558 H   0  0  0  0  0  0  0  0  0  0  0  0
   17.4209   50.5630   14.5184 H   0  0  0  0  0  0  0  0  0  0  0  0
   13.8230   49.6432   16.7493 H   0  0  0  0  0  0  0  0  0  0  0  0
   14.1024   47.6613   18.2658 H   0  0  0  0  0  0  0  0  0  0  0  0
   16.4260   46.8260   18.7724 H   0  0  0  0  0  0  0  0  0  0  0  0
   18.1271   49.8845   16.3370 H   0  0  0  0  0  0  0  0  0  0  0  0
   11.5650   61.4970   12.5110 C   0  0  0  0  0  0  0  0  0  0  0  0
   10.5330   60.9290   11.7370 C   0  0  0  0  0  0  0  0  0  0  0  0
   10.6150   59.6390   11.3340 N   0  0  0  0  0  0  0  0  0  0  0  0
   11.6740   58.8450   11.6480 C   0  0  0  0  0  0  0  0  0  0  0  0
   12.7470   59.3530   12.4240 C   0  0  0  0  0  0  0  0  0  0  0  0
   12.6820   60.6950   12.8550 C   0  0  0  0  0  0  0  0  0  0  0  0
   13.8570   58.4850   12.7390 C   0  0  0  0  0  0  0  0  0  0  0  0
   13.7950   57.1810   12.3360 N   0  0  0  0  0  0  0  0  0  0  0  0
   14.7570   56.2910   12.5640 C   0  0  0  0  0  0  0  0  0  0  0  0
   15.8770   56.7040   13.2410 N   0  0  0  0  0  0  0  0  0  0  0  0
   16.0220   57.9800   13.6790 C   0  0  0  0  0  0  0  0  0  0  0  0
   15.0010   58.9140   13.4350 C   0  0  0  0  0  0  0  0  0  0  0  0
   14.6570   55.0130   12.1520 N   0  0  0  0  0  0  0  0  0  0  0  0
   15.6960   54.0830   12.2510 C   0  0  0  0  0  0  0  0  0  0  0  0
   15.6490   53.1620   13.3500 C   0  0  0  0  0  0  0  0  0  0  0  0
   16.6800   52.1840   13.5080 C   0  0  0  0  0  0  0  0  0  0  0  0
   17.6990   52.1450   12.5780 C   0  0  0  0  0  0  0  0  0  0  0  0
   17.7480   53.0460   11.5040 C   0  0  0  0  0  0  0  0  0  0  0  0
   16.7390   54.0180   11.3140 C   0  0  0  0  0  0  0  0  0  0  0  0
   16.9120   54.9120   10.1050 C   0  0  0  0  0  0  0  0  0  0  0  0
   16.6610   51.2280   14.5380 N   0  0  0  0  0  0  0  0  0  0  0  0
   15.7950   51.0650   15.5350 C   0  0  0  0  0  0  0  0  0  0  0  0
   15.9660   49.9190   16.4300 C   0  0  0  0  0  0  0  0  0  0  0  0
   14.8210   49.2730   16.9840 C   0  0  0  0  0  0  0  0  0  0  0  0
   14.9740   48.1550   17.8360 C   0  0  0  0  0  0  0  0  0  0  0  0
   16.2820   47.6880   18.1210 C   0  0  0  0  0  0  0  0  0  0  0  0
   17.3630   48.3250   17.5740 N   0  0  0  0  0  0  0  0  0  0  0  0
   17.2360   49.4110   16.7490 C   0  0  0  0  0  0  0  0  0  0  0  0
   14.8230   51.7860   15.7350 O   0  0  0  0  0  0  0  0  0  0  0  0
  1 19  1  0  0  0  0
 19 20  4  0  0  0  0
 19 24  4  0  0  0  0
  2 20  1  0  0  0  0
 20 21  4  0  0  0  0
 21 22  4  0  0  0  0
  3 22  1  0  0  0  0
 22 23  4  0  0  0  0
 23 24  4  0  0  0  0
 23 25  1  0  0  0  0
  4 24  1  0  0  0  0
 25 26  4  0  0  0  0
 25 30  4  0  0  0  0
 26 27  4  0  0  0  0
 27 28  4  0  0  0  0
 27 31  1  0  0  0  0
 28 29  4  0  0  0  0
  5 29  1  0  0  0  0
 29 30  4  0  0  0  0
  6 30  1  0  0  0  0
  7 31  1  0  0  0  0
 31 32  1  0  0  0  0
 32 33  4  0  0  0  0
 32 37  4  0  0  0  0
  8 33  1  0  0  0  0
 33 34  4  0  0  0  0
 34 35  4  0  0  0  0
 34 39  1  0  0  0  0
  9 35  1  0  0  0  0
 35 36  4  0  0  0  0
 10 36  1  0  0  0  0
 36 37  4  0  0  0  0
 37 38  1  0  0  0  0
 11 38  1  0  0  0  0
 12 38  1  0  0  0  0
 13 38  1  0  0  0  0
 14 39  1  0  0  0  0
 39 40  1  0  0  0  0
 40 41  1  0  0  0  0
 40 47  2  0  0  0  0
 41 42  4  0  0  0  0
 41 46  4  0  0  0  0
 15 42  1  0  0  0  0
 42 43  4  0  0  0  0
 16 43  1  0  0  0  0
 43 44  4  0  0  0  0
 17 44  1  0  0  0  0
 44 45  4  0  0  0  0
 45 46  4  0  0  0  0
 18 46  1  0  0  0  0
M  END
$$$$
