REMARK SMILES CCCOC(=O)C1CS[C@@H]([C@H](C=O)[C@@H](C)OC(C)=O)N1
REMARK SMILES IDX 9 2 8 3 7 4 20 5 10 6 5 7 6 8 4 9 3 10 2 11 1 12 11 13 12 14
REMARK SMILES IDX 13 15 14 16 15 17 16 18 17 19 19 20 18 21
REMARK H PARENT 20 1
REMARK Flexibility Score: inf
ROOT
ATOM      1  H   UNL     1      -0.408  -1.788   0.331  1.00  0.00     0.124 HD
ATOM      2  S   UNL     1       1.941  -4.130   0.738  1.00  0.00    -0.140 SA
ATOM      3  C   UNL     1       0.878  -4.281  -0.688  1.00  0.00     0.102 C 
ATOM      4  C   UNL     1      -0.221  -3.512  -0.617  1.00  0.00     0.175 C 
ATOM      5  N   UNL     1      -0.331  -2.763   0.582  1.00  0.00    -0.291 NA
ATOM      6  C   UNL     1       0.791  -2.898   1.538  1.00  0.00     0.126 C 
ENDROOT
BRANCH   4   7
ATOM      7  C   UNL     1      -1.247  -3.425  -1.673  1.00  0.00     0.324 C 
ATOM      8  O   UNL     1      -2.240  -2.750  -1.679  1.00  0.00    -0.250 OA
BRANCH   7   9
ATOM      9  O   UNL     1      -0.864  -4.254  -2.629  1.00  0.00    -0.465 OA
BRANCH   9  10
ATOM     10  C   UNL     1      -1.759  -5.386  -2.977  1.00  0.00     0.232 C 
BRANCH  10  11
ATOM     11  C   UNL     1      -1.369  -6.181  -4.173  1.00  0.00     0.038 C 
ATOM     12  C   UNL     1      -0.665  -7.157  -4.228  1.00  0.00     0.007 C 
ENDBRANCH  10  11
ENDBRANCH   9  10
ENDBRANCH   7   9
ENDBRANCH   4   7
BRANCH   6  13
ATOM     13  C   UNL     1       1.230  -1.432   1.593  1.00  0.00     0.120 C 
BRANCH  13  14
ATOM     14  C   UNL     1       1.052  -0.797   0.203  1.00  0.00     0.234 C 
ATOM     15  O   UNL     1       1.738  -1.176  -0.751  1.00  0.00    -0.303 OA
ENDBRANCH  13  14
BRANCH  13  16
ATOM     16  C   UNL     1       2.640  -1.389   1.944  1.00  0.00     0.186 C 
ATOM     17  C   UNL     1       3.059   0.001   2.315  1.00  0.00     0.054 C 
BRANCH  16  18
ATOM     18  O   UNL     1       2.947  -2.409   2.955  1.00  0.00    -0.462 OA
BRANCH  18  19
ATOM     19  C   UNL     1       4.261  -2.679   3.286  1.00  0.00     0.302 C 
ATOM     20  O   UNL     1       4.606  -3.306   4.261  1.00  0.00    -0.253 OA
ATOM     21  C   UNL     1       5.249  -2.178   2.303  1.00  0.00     0.139 C 
ENDBRANCH  18  19
ENDBRANCH  16  18
ENDBRANCH  13  16
ENDBRANCH   6  13
TORSDOF 9
