obj01
  PyMOL2.5          3D                             0

 20 21  0  0  0  0  0  0  0  0999 V2000
   24.0283    3.4232   14.3332 H   0  0  0  0  0  0  0  0  0  0  0  0
   23.9580    4.3210   13.8760 N   0  0  0  0  0  0  0  0  0  0  0  0
   22.7830    4.6990   13.2060 C   0  0  0  0  0  0  0  0  0  0  0  0
   21.7520    5.3460   13.9220 C   0  0  0  0  0  0  0  0  0  0  0  0
   22.6370    4.4260   11.8220 C   0  0  0  0  0  0  0  0  0  0  0  0
   20.5620    5.7140   13.2600 C   0  0  0  0  0  0  0  0  0  0  0  0
   21.4460    4.7960   11.1610 C   0  0  0  0  0  0  0  0  0  0  0  0
   20.4110    5.4330   11.8830 C   0  0  0  0  0  0  0  0  0  0  0  0
   18.9380    5.8670   11.0820 Cl  0  0  0  0  0  0  0  0  0  0  0  0
   25.2760    5.4300   13.8970 S   0  0  0  0  0  0  0  0  0  0  0  0
   25.0170    6.7010   15.2220 C   0  0  0  0  0  0  0  0  0  0  0  0
   26.4830    4.6860   14.1520 O   0  0  0  0  0  0  0  0  0  0  0  0
   25.3670    6.0870   12.6250 O   0  0  0  0  0  0  0  0  0  0  0  0
   24.7470    6.4870   16.5870 C   0  0  0  0  0  0  0  0  0  0  0  0
   25.0600    8.0870   15.0100 C   0  0  0  0  0  0  0  0  0  0  0  0
   24.6290    7.7630   17.2160 S   0  0  0  0  0  0  0  0  0  0  0  0
   24.6010    5.1790   17.2960 C   0  0  0  0  0  0  0  0  0  0  0  0
   24.8220    8.7390   16.2240 C   0  0  0  0  0  0  0  0  0  0  0  0
   24.7180    4.0210   16.6520 O   0  0  0  0  0  0  0  0  0  0  0  0
   24.3710    5.1850   18.4900 O   0  0  0  0  0  0  0  0  0  0  0  0
  1  2  1  0  0  0  0
  2  3  1  0  0  0  0
  2 10  1  0  0  0  0
  3  4  4  0  0  0  0
  3  5  4  0  0  0  0
  4  6  4  0  0  0  0
  5  7  4  0  0  0  0
  6  8  4  0  0  0  0
  7  8  4  0  0  0  0
  8  9  1  0  0  0  0
 10 11  1  0  0  0  0
 10 12  2  0  0  0  0
 10 13  2  0  0  0  0
 11 14  4  0  0  0  0
 11 15  4  0  0  0  0
 14 16  4  0  0  0  0
 14 17  1  0  0  0  0
 15 18  4  0  0  0  0
 16 18  4  0  0  0  0
 17 19  4  0  0  0  0
 17 20  4  0  0  0  0
M  END
$$$$
