obj01
  PyMOL2.5          3D                             0

 49 51  0  0  0  0  0  0  0  0999 V2000
   -2.6670   56.9110    4.6460 N   0  0  0  0  0  0  0  0  0  0  0  0
   -2.4040   55.8560    5.6390 C   0  0  0  0  0  0  0  0  0  0  0  0
   -3.5330   54.8260    5.7380 C   0  0  0  0  0  0  0  0  0  0  0  0
   -4.1460   54.4540    4.7380 O   0  0  0  0  0  0  0  0  0  0  0  0
   -1.0990   55.1350    5.2910 C   0  0  0  0  0  0  0  0  0  0  0  0
   -3.4100   56.6990    3.3920 C   0  0  0  0  0  0  0  0  0  0  0  0
   -1.1850   54.5820    3.9750 O   0  0  0  0  0  0  0  0  0  0  0  0
   -3.7850   54.3970    6.9730 N   0  0  0  0  0  0  0  0  0  0  0  0
   -4.7950   53.3700    7.2710 C   0  0  0  0  0  0  0  0  0  0  0  0
   -5.3270   53.5340    8.6970 C   0  0  0  0  0  0  0  0  0  0  0  0
   -4.0880   52.0220    7.1290 C   0  0  0  0  0  0  0  0  0  0  0  0
   -2.9230   51.8900    7.5030 O   0  0  0  0  0  0  0  0  0  0  0  0
   -4.8020   51.0410    6.5880 N   0  0  0  0  0  0  0  0  0  0  0  0
   -4.2350   49.7040    6.3540 C   0  0  0  0  0  0  0  0  0  0  0  0
   -3.8270   49.0030    7.6530 C   0  0  0  0  0  0  0  0  0  0  0  0
   -4.0050   49.5490    8.7400 O   0  0  0  0  0  0  0  0  0  0  0  0
   -3.2370   47.8160    7.5230 N   0  0  0  0  0  0  0  0  0  0  0  0
   -2.8490   47.0620    8.7250 C   0  0  0  0  0  0  0  0  0  0  0  0
   -1.3300   47.0140    8.9110 C   0  0  0  0  0  0  0  0  0  0  0  0
   -0.5570   47.4040    8.0380 O   0  0  0  0  0  0  0  0  0  0  0  0
   -2.9920   47.3320    6.1550 C   0  0  0  0  0  0  0  0  0  0  0  0
   -3.3800   45.6290    8.6170 C   0  0  0  0  0  0  0  0  0  0  0  0
   -2.4830   44.5690    8.5230 C   0  0  0  0  0  0  0  0  0  0  0  0
   -4.7470   45.3710    8.5950 C   0  0  0  0  0  0  0  0  0  0  0  0
   -2.9220   43.2530    8.4130 C   0  0  0  0  0  0  0  0  0  0  0  0
   -5.1960   44.0580    8.4730 C   0  0  0  0  0  0  0  0  0  0  0  0
   -4.2940   43.0020    8.3800 C   0  0  0  0  0  0  0  0  0  0  0  0
   -4.7620   41.7300    8.2610 O   0  0  0  0  0  0  0  0  0  0  0  0
   -0.9630   46.4710   10.0690 N   0  0  0  0  0  0  0  0  0  0  0  0
    0.4270   46.2540   10.4960 C   0  0  0  0  0  0  0  0  0  0  0  0
    0.4280   44.9540   11.3030 C   0  0  0  0  0  0  0  0  0  0  0  0
   -0.1200   44.9020   12.4030 O   0  0  0  0  0  0  0  0  0  0  0  0
    0.9020   47.4170   11.3710 C   0  0  0  0  0  0  0  0  0  0  0  0
    1.0180   43.9160   10.7180 N   0  0  0  0  0  0  0  0  0  0  0  0
    1.0960   42.5810   11.3330 C   0  0  0  0  0  0  0  0  0  0  0  0
    2.2350   42.5030   12.3520 C   0  0  0  0  0  0  0  0  0  0  0  0
    2.2760   41.5770   13.1610 O   0  0  0  0  0  0  0  0  0  0  0  0
    1.3000   41.5090   10.2570 C   0  0  0  0  0  0  0  0  0  0  0  0
    0.1330   41.3990    9.2710 C   0  0  0  0  0  0  0  0  0  0  0  0
   -0.9130   42.3150    9.3010 C   0  0  0  0  0  0  0  0  0  0  0  0
    0.1200   40.3840    8.3160 C   0  0  0  0  0  0  0  0  0  0  0  0
   -1.9670   42.2420    8.3950 C   0  0  0  0  0  0  0  0  0  0  0  0
   -0.9310   40.2990    7.4080 C   0  0  0  0  0  0  0  0  0  0  0  0
   -1.9730   41.2220    7.4430 C   0  0  0  0  0  0  0  0  0  0  0  0
   -2.9820   41.1290    6.5380 O   0  0  0  0  0  0  0  0  0  0  0  0
    3.1170   43.3600   12.3710 O   0  5  0  0  0  0  0  0  0  0  0  0
   -2.1830   58.1320    4.8670 C   0  0  0  0  0  0  0  0  0  0  0  0
   -1.5180   58.4170    5.8640 O   0  0  0  0  0  0  0  0  0  0  0  0
   -2.4720   59.2060    3.8130 C   0  0  0  0  0  0  0  0  0  0  0  0
  1  2  1  0  0  0  0
  1  6  1  0  0  0  0
  1 47  1  0  0  0  0
  2  3  1  0  0  0  0
  2  5  1  0  0  0  0
  3  4  2  0  0  0  0
  3  8  1  0  0  0  0
  5  7  1  0  0  0  0
  8  9  1  0  0  0  0
  9 10  1  0  0  0  0
  9 11  1  0  0  0  0
 11 12  2  0  0  0  0
 11 13  1  0  0  0  0
 13 14  1  0  0  0  0
 14 15  1  0  0  0  0
 15 16  2  0  0  0  0
 15 17  1  0  0  0  0
 17 18  1  0  0  0  0
 17 21  1  0  0  0  0
 18 19  1  0  0  0  0
 18 22  1  0  0  0  0
 19 20  2  0  0  0  0
 19 29  1  0  0  0  0
 22 23  4  0  0  0  0
 22 24  4  0  0  0  0
 23 25  4  0  0  0  0
 24 26  4  0  0  0  0
 25 27  4  0  0  0  0
 25 42  1  0  0  0  0
 26 27  4  0  0  0  0
 27 28  1  0  0  0  0
 29 30  1  0  0  0  0
 30 31  1  0  0  0  0
 30 33  1  0  0  0  0
 31 32  2  0  0  0  0
 31 34  1  0  0  0  0
 34 35  1  0  0  0  0
 35 36  1  0  0  0  0
 35 38  1  0  0  0  0
 36 37  2  0  0  0  0
 36 46  1  0  0  0  0
 38 39  1  0  0  0  0
 39 40  2  0  0  0  0
 39 41  1  0  0  0  0
 40 42  1  0  0  0  0
 41 43  2  0  0  0  0
 42 44  2  0  0  0  0
 43 44  1  0  0  0  0
 44 45  1  0  0  0  0
 47 48  2  0  0  0  0
 47 49  1  0  0  0  0
M  END
$$$$
