REMARK SMILES O=C(C1=CS[C@@H]2CC(=O)N12)N1CCOCC1
REMARK SMILES IDX 5 1 9 2 10 3 6 4 7 5 3 6 8 7 4 8 2 9 1 10 11 11 12 12 16 13
REMARK SMILES IDX 13 14 15 15 14 16
REMARK H PARENT
REMARK INDEX MAP 1 1 3 2 5 3 7 4 8 5 9 6 10 7 14 8 11 9 4 10 6 11 12 12 13 13
REMARK INDEX MAP 15 14 16 15 2 16
REMARK Flexibility Score: inf
ROOT
ATOM      1  S   UNL     1       3.303   1.101   1.129  1.00  0.00    -0.106 SA
ATOM      2  O   UNL     1       1.273  -1.571  -1.882  1.00  0.00    -0.274 OA
ATOM      3  N   UNL     1       1.408  -0.494   0.217  1.00  0.00    -0.293 N 
ATOM      4  C   UNL     1       2.672  -0.618   0.969  1.00  0.00     0.096 C 
ATOM      5  C   UNL     1       3.205  -1.453  -0.209  1.00  0.00     0.058 C 
ATOM      6  C   UNL     1       0.960   0.794   0.112  1.00  0.00     0.117 C 
ATOM      7  C   UNL     1       1.799  -1.274  -0.834  1.00  0.00     0.231 C 
ATOM      8  C   UNL     1       1.786   1.745   0.562  1.00  0.00     0.003 C 
ENDROOT
BRANCH   6   9
ATOM      9  C   UNL     1      -0.328   1.106  -0.538  1.00  0.00     0.271 C 
ATOM     10  O   UNL     1      -0.296   1.786  -1.566  1.00  0.00    -0.267 OA
ATOM     11  N   UNL     1      -1.491   0.618   0.048  1.00  0.00    -0.333 N 
ATOM     12  C   UNL     1      -2.785   0.911  -0.571  1.00  0.00     0.044 C 
ATOM     13  C   UNL     1      -1.603  -0.075   1.339  1.00  0.00     0.044 C 
ATOM     14  C   UNL     1      -3.635  -0.350  -0.638  1.00  0.00     0.064 C 
ATOM     15  C   UNL     1      -2.498  -1.300   1.199  1.00  0.00     0.064 C 
ATOM     16  O   UNL     1      -3.771  -0.926   0.664  1.00  0.00    -0.378 OA
ENDBRANCH   6   9
TORSDOF 1
