# created with PyMOL 2.5.4
@<TRIPOS>MOLECULE
44359165
28 30 1                 
SMALL
USER_CHARGES
@<TRIPOS>ATOM
1	   S	3.303	1.101	1.129	S.3	1	UNK0	0.000	
2	   O	-3.771	-0.926	0.664	O.3	1	UNK0	0.000	
3	   O	1.273	-1.571	-1.882	O.2	1	UNK0	0.000	
4	   O	-0.296	1.786	-1.566	O.2	1	UNK0	0.000	
5	   N	1.408	-0.494	0.217	N.pl3	1	UNK0	0.000	
6	   N	-1.491	0.618	0.048	N.pl3	1	UNK0	0.000	
7	   C	2.672	-0.618	0.969	C.3	1	UNK0	0.000	
8	   C	3.205	-1.453	-0.209	C.3	1	UNK0	0.000	
9	   C	0.960	0.794	0.112	C.2	1	UNK0	0.000	
10	   C	1.799	-1.274	-0.834	C.2	1	UNK0	0.000	
11	   C	-0.328	1.106	-0.538	C.2	1	UNK0	0.000	
12	   C	-2.785	0.911	-0.571	C.3	1	UNK0	0.000	
13	   C	-1.603	-0.075	1.339	C.3	1	UNK0	0.000	
14	   C	1.786	1.745	0.562	C.2	1	UNK0	0.000	
15	   C	-3.635	-0.350	-0.638	C.3	1	UNK0	0.000	
16	   C	-2.498	-1.300	1.199	C.3	1	UNK0	0.000	
17	   H	2.544	-1.158	1.912	 H	1	UNK0	0.000	
18	   H	3.449	-2.490	0.034	 H	1	UNK0	0.000	
19	   H	4.010	-1.014	-0.805	 H	1	UNK0	0.000	
20	   H	-2.659	1.337	-1.571	 H	1	UNK0	0.000	
21	   H	-3.270	1.664	0.060	 H	1	UNK0	0.000	
22	   H	-2.058	0.644	2.031	 H	1	UNK0	0.000	
23	   H	-0.632	-0.354	1.748	 H	1	UNK0	0.000	
24	   H	1.596	2.809	0.529	 H	1	UNK0	0.000	
25	   H	-4.637	-0.110	-1.005	 H	1	UNK0	0.000	
26	   H	-3.197	-1.092	-1.316	 H	1	UNK0	0.000	
27	   H	-2.041	-2.056	0.549	 H	1	UNK0	0.000	
28	   H	-2.667	-1.756	2.179	 H	1	UNK0	0.000	
@<TRIPOS>BOND
1 1 7 1
2 1 14 1
3 2 15 1
4 2 16 1
5 3 10 2
6 4 11 2
7 5 7 1
8 5 9 1
9 5 10 1
10 6 11 1
11 6 12 1
12 6 13 1
13 7 8 1
14 7 17 1
15 8 10 1
16 8 18 1
17 8 19 1
18 9 11 1
19 9 14 2
20 12 15 1
21 12 20 1
22 12 21 1
23 13 16 1
24 13 22 1
25 13 23 1
26 14 24 1
27 15 25 1
28 15 26 1
29 16 27 1
30 16 28 1
@<TRIPOS>SUBSTRUCTURE
1	UNK0	1	GROUP	1 ****	UNK
