obj01
  PyMOL2.5          3D                             0

 24 25  0  0  0  0  0  0  0  0999 V2000
   20.9990    3.8200    9.1250 C   0  0  0  0  0  0  0  0  0  0  0  0
   19.8250    3.0870    8.7820 C   0  0  0  0  0  0  0  0  0  0  0  0
   19.0500    2.5750    9.8490 C   0  0  0  0  0  0  0  0  0  0  0  0
   17.7110    1.7830    9.7010 C   0  0  0  0  0  0  0  0  0  0  0  0
   17.3260    1.1450   10.7240 O   0  0  0  0  0  0  0  0  0  0  0  0
   17.0780    1.8740    8.5910 O   0  0  0  0  0  0  0  0  0  0  0  0
   19.4350    2.7900   11.1470 C   0  0  0  0  0  0  0  0  0  0  0  0
   20.5630    3.5150   11.4470 C   0  0  0  0  0  0  0  0  0  0  0  0
   21.3910    4.0260   10.4740 C   0  0  0  0  0  0  0  0  0  0  0  0
   22.6410    4.7840   10.9670 C   0  0  0  0  0  0  0  0  0  0  0  0
   23.1970    4.1090   12.2620 C   0  0  0  0  0  0  0  0  0  0  0  0
   23.2380    5.0240   13.5570 C   0  0  0  0  0  0  0  0  0  0  0  0
   24.3010    4.6020   14.5150 N   0  0  0  0  0  0  0  0  0  0  0  0
   25.7680    5.5610   14.5290 S   0  0  0  0  0  0  0  0  0  0  0  0
   25.7660    6.3050   13.2100 O   0  0  0  0  0  0  0  0  0  0  0  0
   27.0070    4.7360   14.7300 O   0  0  0  0  0  0  0  0  0  0  0  0
   25.6210    6.6280   15.8960 C   0  0  0  0  0  0  0  0  0  0  0  0
   25.6620    7.9740   15.7320 C   0  0  0  0  0  0  0  0  0  0  0  0
   25.4880    8.7160   16.8550 C   0  0  0  0  0  0  0  0  0  0  0  0
   25.2730    7.6450   18.1970 S   0  0  0  0  0  0  0  0  0  0  0  0
   25.4150    6.2190   17.2350 C   0  0  0  0  0  0  0  0  0  0  0  0
   25.2920    4.8390   17.8800 C   0  0  0  0  0  0  0  0  0  0  0  0
   25.1060    4.8860   19.1340 O   0  0  0  0  0  0  0  0  0  0  0  0
   25.3860    3.7940   17.1910 O   0  0  0  0  0  0  0  0  0  0  0  0
  1  2  4  0  0  0  0
  1  9  4  0  0  0  0
  2  3  4  0  0  0  0
  3  4  1  0  0  0  0
  3  7  4  0  0  0  0
  4  5  4  0  0  0  0
  4  6  4  0  0  0  0
  7  8  4  0  0  0  0
  8  9  4  0  0  0  0
  9 10  1  0  0  0  0
 10 11  1  0  0  0  0
 11 12  1  0  0  0  0
 12 13  1  0  0  0  0
 13 14  1  0  0  0  0
 14 15  2  0  0  0  0
 14 16  2  0  0  0  0
 14 17  1  0  0  0  0
 17 18  4  0  0  0  0
 17 21  4  0  0  0  0
 18 19  4  0  0  0  0
 19 20  4  0  0  0  0
 20 21  4  0  0  0  0
 21 22  1  0  0  0  0
 22 23  4  0  0  0  0
 22 24  4  0  0  0  0
M  END
$$$$
