73659123
  PyMOL2.5          3D                             0

 27 28  0  0  0  0  0  0  0  0999 V2000
   25.4673    5.1174   15.0437 S   0  0  0  0  0  0  0  0  0  0  0  0
   25.1936    9.1872   16.3714 S   0  0  0  0  0  0  0  0  0  0  0  0
   26.3360    4.8206   13.9207 O   0  0  0  0  0  0  0  0  0  0  0  0
   25.6629    4.4462   16.3145 O   0  0  0  0  0  0  0  0  0  0  0  0
   23.4541    7.9284   18.1752 O   0  0  0  0  0  0  0  0  0  0  0  0
   23.6185    5.7813   17.4473 O   0  0  0  0  0  0  0  0  0  0  0  0
   18.3787    0.7475    8.3891 O   0  0  0  0  0  0  0  0  0  0  0  0
   17.6927   -0.2589   10.3082 O   0  0  0  0  0  0  0  0  0  0  0  0
   23.8460    4.9327   14.5675 N   0  0  0  0  0  0  0  0  0  0  0  0
   22.2288    4.8570   12.7067 C   0  0  0  0  0  0  0  0  0  0  0  0
   23.3367    5.6573   13.3830 C   0  0  0  0  0  0  0  0  0  0  0  0
   22.7101    3.4868   12.2176 C   0  0  0  0  0  0  0  0  0  0  0  0
   21.5968    2.7073   11.5646 C   0  0  0  0  0  0  0  0  0  0  0  0
   25.5576    6.8545   15.3583 C   0  0  0  0  0  0  0  0  0  0  0  0
   20.7934    1.8637   12.3320 C   0  0  0  0  0  0  0  0  0  0  0  0
   21.3704    2.8294   10.1936 C   0  0  0  0  0  0  0  0  0  0  0  0
   24.8671    7.5063   16.3564 C   0  0  0  0  0  0  0  0  0  0  0  0
   26.3655    7.7469   14.5961 C   0  0  0  0  0  0  0  0  0  0  0  0
   19.7634    1.1426   11.7282 C   0  0  0  0  0  0  0  0  0  0  0  0
   20.3405    2.1081    9.5901 C   0  0  0  0  0  0  0  0  0  0  0  0
   19.5368    1.2646   10.3573 C   0  0  0  0  0  0  0  0  0  0  0  0
   26.2616    9.0466   15.0405 C   0  0  0  0  0  0  0  0  0  0  0  0
   23.9609    6.9780   17.3260 C   0  0  0  0  0  0  0  0  0  0  0  0
   18.4625    0.5135    9.7275 C   0  0  0  0  0  0  0  0  0  0  0  0
   23.1508    4.8429   15.3202 H   0  0  0  0  0  0  0  0  0  0  0  0
   22.8361    7.5366   18.8288 H   0  0  0  0  0  0  0  0  0  0  0  0
   17.6514    0.2365    7.9741 H   0  0  0  0  0  0  0  0  0  0  0  0
  1  3  2  0  0  0  0
  1  4  2  0  0  0  0
  1  9  1  0  0  0  0
  1 14  1  0  0  0  0
  2 17  1  0  0  0  0
  2 22  1  0  0  0  0
  5 23  1  0  0  0  0
  5 26  1  0  0  0  0
  6 23  2  0  0  0  0
  7 24  1  0  0  0  0
  7 27  1  0  0  0  0
  8 24  2  0  0  0  0
  9 11  1  0  0  0  0
  9 25  1  0  0  0  0
 10 11  1  0  0  0  0
 10 12  1  0  0  0  0
 12 13  1  0  0  0  0
 13 15  2  0  0  0  0
 13 16  1  0  0  0  0
 14 17  2  0  0  0  0
 14 18  1  0  0  0  0
 15 19  1  0  0  0  0
 16 20  2  0  0  0  0
 17 23  1  0  0  0  0
 18 22  2  0  0  0  0
 19 21  2  0  0  0  0
 20 21  1  0  0  0  0
 21 24  1  0  0  0  0
M  END
>  <PUBCHEM_COMPOUND_CID>
73659123

>  <PUBCHEM_CONFORMER_RMSD>
0.800000

>  <PUBCHEM_CONFORMER_DIVERSEORDER>
1
122
35
121
46
185
117
77
96
34
37
164
113
71
33
73
127
148
48
12
84
98
49
171
109
178
53
90
97
137
28
30
88
163
158
111
102
172
169
7
128
42
72
69
66
100
141
27
160
78
131
139
143
32
38
153
29
170
159
4
152
6
126
8
62
45
68
167
22
75
147
180
173
104
60
134
59
31
39
36
79
106
70
157
156
155
52
16
18
25
99
14
85
166
125
15
82
93
115
94
114
188
83
87
175
182
123
179
61
162
20
120
47
65
176
177
165
186
107
174
3
144
10
101
57
183
40
184
41
142
74
86
145
21
58
136
95
149
51
56
110
9
11
133
92
116
124
151
130
44
112
108
140
55
118
150
135
50
24
119
67
146
89
138
64
168
17
91
76
154
54
43
161
63
5
19
23
2
129
80
26
103
181
13
132
81
105
187


>  <PUBCHEM_MMFF94_PARTIAL_CHARGES>
32
1 1.5
11 0.36
12 0.14
13 -0.14
14 -0.06
15 -0.15
16 -0.15
17 -0.05
18 -0.15
19 -0.15
2 -0.08
20 -0.15
21 0.09
22 -0.11
23 0.81
24 0.63
3 -0.65
31 0.42
32 0.15
33 0.15
34 0.15
35 0.15
36 0.15
37 0.15
38 0.5
39 0.5
4 -0.65
5 -0.65
6 -0.57
7 -0.65
8 -0.57
9 -0.91


>  <PUBCHEM_EFFECTIVE_ROTOR_COUNT>
8

>  <PUBCHEM_PHARMACOPHORE_FEATURES>
11
1 3 acceptor
1 4 acceptor
1 5 acceptor
1 6 acceptor
1 7 acceptor
1 8 acceptor
1 9 donor
3 5 6 23 anion
3 7 8 24 anion
5 2 14 17 18 22 rings
6 13 15 16 19 20 21 rings


>  <PUBCHEM_HEAVY_ATOM_COUNT>
24

>  <PUBCHEM_ATOM_DEF_STEREO_COUNT>
0

>  <PUBCHEM_ATOM_UDEF_STEREO_COUNT>
0

>  <PUBCHEM_BOND_DEF_STEREO_COUNT>
0

>  <PUBCHEM_BOND_UDEF_STEREO_COUNT>
0

>  <PUBCHEM_ISOTOPIC_ATOM_COUNT>
0

>  <PUBCHEM_COMPONENT_COUNT>
1

>  <PUBCHEM_CACTVS_TAUTO_COUNT>
3

>  <PUBCHEM_CONFORMER_ID>
0463F2F300000001

>  <PUBCHEM_MMFF94_ENERGY>
49.053100

>  <PUBCHEM_FEATURE_SELFOVERLAP>
55.964000

>  <PUBCHEM_SHAPE_FINGERPRINT>
10 15 13262402167804977847
10670039 82 17775294832587939753
11181472 205 18118118075290155197
11719270 70 17060622166143682383
11991303 11 17489862782928487743
12166972 35 17418092126780833729
12236239 1 18335137592630655239
12516196 113 15574716889712107295
12596602 18 18260269681031449435
13533116 47 17531239505251265635
13782708 43 15195276569538790951
13955234 65 17531235129107008658
14528608 73 18261111893678929186
14840074 17 17530685403146927055
14933364 13 18408326592501712965
15183329 4 18272941500579732940
17844677 252 18341621394807592108
19377110 9 11674877771238686423
1979834 28 14923940146265933218
21130935 74 14129054773844780041
21315763 178 11169917212181033705
21781051 124 16773516680892793335
220451 1 17458062660369608067
22061861 79 16272208578749145399
221357 26 18410858737753035980
23559900 14 18131629002229897259
29717793 49 18201722842614613150
300161 21 17386001789039394651
3004659 81 18201440255631886210
34797466 226 18409451396912391775
394071 54 17240768431750182636
4073 2 18115030826004743282
4340502 62 10809346646154618112
5283156 175 11024109841972472343
542803 24 18408039611266373227
59682541 52 18342463625473724734
59755656 215 17632580409804790103
633830 44 18335134332439514030


>  <PUBCHEM_SHAPE_MULTIPOLES>
461.41
20.34
1.95
1.39
25.73
0.74
-0.54
2.67
6.27
-2.59
0.17
-2.09
-0.13
-0.63


>  <PUBCHEM_SHAPE_SELFOVERLAP>
949.811000

>  <PUBCHEM_SHAPE_VOLUME>
263.900000

>  <PUBCHEM_COORDINATE_TYPE>
2
5
10


$$$$
