9926217
  PyMOL2.5          3D                             0

 35 36  0  0  1  0  0  0  0  0999 V2000
   63.6750   22.5610   88.4140 S   0  0  0  0  0  0  0  0  0  0  0  0
   61.4905   25.1553   88.3361 O   0  0  0  0  0  0  0  0  0  0  0  0
   65.8875   26.4864   88.6835 O   0  0  0  0  0  0  0  0  0  0  0  0
   68.0299   24.6092   88.7169 O   0  0  0  0  0  0  0  0  0  0  0  0
   67.9114   22.7778   90.1280 O   0  0  0  0  0  0  0  0  0  0  0  0
   60.5934   25.4197   90.4485 O   0  0  0  0  0  0  0  0  0  0  0  0
   65.5835   24.2958   87.8520 N   0  0  0  0  0  0  0  0  0  0  0  0
   63.7999   25.3591   87.7215 C   0  0  2  0  0  0  0  0  0  0  0  0
   64.2475   23.9377   87.3379 C   0  0  2  0  0  0  0  0  0  0  0  0
   65.2671   25.5879   88.1608 C   0  0  0  0  0  0  0  0  0  0  0  0
   62.7947   25.4289   88.8474 C   0  0  1  0  0  0  0  0  0  0  0  0
   66.0926   23.3809   88.7330 C   0  0  0  0  0  0  0  0  0  0  0  0
   65.2654   22.3984   89.1070 C   0  0  0  0  0  0  0  0  0  0  0  0
   62.7944   26.8056   89.5015 C   0  0  0  0  0  0  0  0  0  0  0  0
   67.4321   23.5283   89.2857 C   0  0  0  0  0  0  0  0  0  0  0  0
   60.4797   25.1845   89.2532 C   0  0  0  0  0  0  0  0  0  0  0  0
   59.1767   24.8815   88.5777 C   0  0  0  0  0  0  0  0  0  0  0  0
   69.3622   24.8869   89.1604 C   0  0  0  0  0  0  0  0  0  0  0  0
   69.8649   26.0950   88.4421 C   0  0  0  0  0  0  0  0  0  0  0  0
   70.2517   27.2203   89.0529 C   0  0  0  0  0  0  0  0  0  0  0  0
   63.5313   25.9821   86.8587 H   0  0  0  0  0  0  0  0  0  0  0  0
   64.2576   23.7173   86.2656 H   0  0  0  0  0  0  0  0  0  0  0  0
   63.0251   24.7312   89.6591 H   0  0  0  0  0  0  0  0  0  0  0  0
   65.4951   21.6121   89.8128 H   0  0  0  0  0  0  0  0  0  0  0  0
   62.3517   27.5503   88.8295 H   0  0  0  0  0  0  0  0  0  0  0  0
   62.2450   26.8607   90.4426 H   0  0  0  0  0  0  0  0  0  0  0  0
   63.8024   27.1461   89.7493 H   0  0  0  0  0  0  0  0  0  0  0  0
   59.2136   23.8843   88.1321 H   0  0  0  0  0  0  0  0  0  0  0  0
   58.9701   25.6370   87.8155 H   0  0  0  0  0  0  0  0  0  0  0  0
   58.3712   24.9030   89.3173 H   0  0  0  0  0  0  0  0  0  0  0  0
   69.3582   25.0398   90.2461 H   0  0  0  0  0  0  0  0  0  0  0  0
   70.0081   24.0340   88.9227 H   0  0  0  0  0  0  0  0  0  0  0  0
   69.9191   26.0452   87.3577 H   0  0  0  0  0  0  0  0  0  0  0  0
   70.6096   28.0643   88.4736 H   0  0  0  0  0  0  0  0  0  0  0  0
   70.2186   27.3207   90.1321 H   0  0  0  0  0  0  0  0  0  0  0  0
  1  9  1  0  0  0  0
  1 13  1  0  0  0  0
  2 11  1  0  0  0  0
  2 16  1  0  0  0  0
  3 10  2  0  0  0  0
  4 15  1  0  0  0  0
  4 18  1  0  0  0  0
  5 15  2  0  0  0  0
  6 16  2  0  0  0  0
  7  9  1  0  0  0  0
  7 10  1  0  0  0  0
  7 12  1  0  0  0  0
  8  9  1  0  0  0  0
  8 10  1  0  0  0  0
  8 11  1  0  0  0  0
  8 21  1  0  0  0  0
  9 22  1  0  0  0  0
 11 14  1  0  0  0  0
 11 23  1  0  0  0  0
 12 13  2  0  0  0  0
 12 15  1  0  0  0  0
 13 24  1  0  0  0  0
 14 25  1  0  0  0  0
 14 26  1  0  0  0  0
 14 27  1  0  0  0  0
 16 17  1  0  0  0  0
 17 28  1  0  0  0  0
 17 29  1  0  0  0  0
 17 30  1  0  0  0  0
 18 19  1  0  0  0  0
 18 31  1  0  0  0  0
 18 32  1  0  0  0  0
 19 20  2  0  0  0  0
 19 33  1  0  0  0  0
 20 34  1  0  0  0  0
 20 35  1  0  0  0  0
M  END
>  <PUBCHEM_COMPOUND_CID>
9926217

>  <PUBCHEM_CONFORMER_RMSD>
0.800000

>  <PUBCHEM_CONFORMER_DIVERSEORDER>
1
38
31
21
37
29
11
28
36
3
34
39
20
9
33
25
35
27
16
8
30
13
4
12
17
22
10
23
14
26
2
40
5
18
24
32
6
7
19
15


>  <PUBCHEM_MMFF94_PARTIAL_CHARGES>
23
1 -0.32
10 0.58
11 0.28
12 0.12
13 -0.05
15 0.71
16 0.66
17 0.06
18 0.42
19 -0.29
2 -0.43
20 -0.3
24 0.15
3 -0.57
33 0.15
34 0.15
35 0.15
4 -0.43
5 -0.57
6 -0.57
7 -0.39
8 0.05
9 0.44


>  <PUBCHEM_EFFECTIVE_ROTOR_COUNT>
7.400000

>  <PUBCHEM_PHARMACOPHORE_FEATURES>
5
1 20 hydrophobe
1 3 acceptor
1 5 acceptor
1 6 acceptor
7 1 7 8 9 10 12 13 rings


>  <PUBCHEM_HEAVY_ATOM_COUNT>
20

>  <PUBCHEM_ATOM_DEF_STEREO_COUNT>
3

>  <PUBCHEM_ATOM_UDEF_STEREO_COUNT>
0

>  <PUBCHEM_BOND_DEF_STEREO_COUNT>
0

>  <PUBCHEM_BOND_UDEF_STEREO_COUNT>
0

>  <PUBCHEM_ISOTOPIC_ATOM_COUNT>
0

>  <PUBCHEM_COMPONENT_COUNT>
1

>  <PUBCHEM_CACTVS_TAUTO_COUNT>
1

>  <PUBCHEM_CONFORMER_ID>
97764900000001.000000

>  <PUBCHEM_MMFF94_ENERGY>
63.575700

>  <PUBCHEM_FEATURE_SELFOVERLAP>
25.373000

>  <PUBCHEM_SHAPE_FINGERPRINT>
10493431 412 18336545018684498980
1100329 8 18267024045000621896
12011746 2 18335988592475157503
12236239 1 18202280303858280069
12390115 104 18267316507004328964
12403259 118 18194951955479530528
12892183 10 18041004990431195537
13140716 1 18119531183068929140
13583140 156 15720208700663569972
14341114 328 18130792218336404203
14429115 67 12324228443767008832
14787075 74 18272085002770793185
14790565 3 18263367065200379572
16945 1 17559089043686954399
19784866 140 11095891453621641189
19784866 240 8430324558159210744
204376 136 18410856559766663031
20626108 58 11891917045640225368
22079108 93 18409728499665187868
23253445 4 17821731632671555113
23558518 356 17761775473814635277
23559900 14 17831572081362339735
23566358 27 18270960120645509078
25147074 1 18267846411358607822
347723 3 12607403265337888870
3729539 64 14045202730864703516
4340502 62 17458347441990718571
474 4 18260548978618210812
474229 33 18412826893494161695
5104073 3 18042124258935290593
5207 123 9727366731425950768
5486654 2 18342739632972618831
59554788 62 17531514460652451526
633830 44 18129100022148049061
8988823 20 13190345699006413734


>  <PUBCHEM_SHAPE_MULTIPOLES>
381.11
10.41
2.46
1.1
0.07
0.52
0.05
-6.17
2.16
-1.67
0.42
0.43
0.11
-0.89


>  <PUBCHEM_SHAPE_SELFOVERLAP>
783.846000

>  <PUBCHEM_SHAPE_VOLUME>
221.800000

>  <PUBCHEM_COORDINATE_TYPE>
2
5
10


$$$$
