5287707
  PyMOL2.5          3D                             0

 89 91  0  0  1  0  0  0  0  0999 V2000
    2.5860   45.1529    7.4812 O   0  0  0  0  0  0  0  0  0  0  0  0
    0.1965   48.7589   12.8357 O   0  0  0  0  0  0  0  0  0  0  0  0
   -1.9527   44.8217    8.8610 O   0  0  0  0  0  0  0  0  0  0  0  0
   -2.9543   49.4021   10.6013 O   0  0  0  0  0  0  0  0  0  0  0  0
    2.2848   49.7985    6.7351 O   0  0  0  0  0  0  0  0  0  0  0  0
   -5.0548   42.4033   10.4656 O   0  0  0  0  0  0  0  0  0  0  0  0
   -4.0086   42.9862    8.7941 O   0  0  0  0  0  0  0  0  0  0  0  0
   -2.5187   51.2469    7.4612 O   0  0  0  0  0  0  0  0  0  0  0  0
   -4.0418   55.4713    5.5867 O   0  0  0  0  0  0  0  0  0  0  0  0
   -6.1542   51.2606    5.9237 O   0  0  0  0  0  0  0  0  0  0  0  0
   -4.8192   53.0205    2.7271 O   0  0  0  0  0  0  0  0  0  0  0  0
    0.9490   48.0370    6.5623 N   0  0  0  0  0  0  0  0  0  0  0  0
    0.4985   45.1891    8.0533 N   0  0  0  0  0  0  0  0  0  0  0  0
   -1.5764   43.1306   10.1703 N   0  0  0  0  0  0  0  0  0  0  0  0
   -0.7409   50.6648    6.6202 N   0  0  0  0  0  0  0  0  0  0  0  0
   -4.1817   50.8952    5.5029 N   0  0  0  0  0  0  0  0  0  0  0  0
   -6.0249   53.6827    4.4565 N   0  0  0  0  0  0  0  0  0  0  0  0
    1.6109   47.3025    7.6136 C   0  0  1  0  0  0  0  0  0  0  0  0
    1.2235   47.8302    8.9693 C   0  0  0  0  0  0  0  0  0  0  0  0
   -2.8129   43.0017   10.8412 C   0  0  1  0  0  0  0  0  0  0  0  0
   -3.0362   43.9926   12.0363 C   0  0  0  0  0  0  0  0  0  0  0  0
    0.2690   44.0757    8.8948 C   0  0  2  0  0  0  0  0  0  0  0  0
    1.5809   45.8203    7.7000 C   0  0  0  0  0  0  0  0  0  0  0  0
   -0.4790   47.9595   10.7594 C   0  0  0  0  0  0  0  0  0  0  0  0
   -0.1136   47.7224    9.4169 C   0  0  0  0  0  0  0  0  0  0  0  0
   -3.0397   45.4521   11.7330 C   0  0  0  0  0  0  0  0  0  0  0  0
   -1.7571   47.4837   11.1428 C   0  0  0  0  0  0  0  0  0  0  0  0
    2.1651   48.3811    9.8676 C   0  0  0  0  0  0  0  0  0  0  0  0
   -1.8169   46.1421   11.5848 C   0  0  0  0  0  0  0  0  0  0  0  0
   -1.1428   44.0186    9.3111 C   0  0  0  0  0  0  0  0  0  0  0  0
    1.2021   49.3458    6.3751 C   0  0  0  0  0  0  0  0  0  0  0  0
    0.4845   48.5035   11.6395 C   0  0  0  0  0  0  0  0  0  0  0  0
    0.0398   47.3463    5.7253 C   0  0  0  0  0  0  0  0  0  0  0  0
    1.7965   48.7361   11.1794 C   0  0  0  0  0  0  0  0  0  0  0  0
   -2.9637   48.2007   10.9753 C   0  0  0  0  0  0  0  0  0  0  0  0
    1.2331   44.0472   10.1208 C   0  0  0  0  0  0  0  0  0  0  0  0
   -4.2321   46.1900   11.5559 C   0  0  0  0  0  0  0  0  0  0  0  0
    0.3404   50.3797    5.7938 C   0  0  0  0  0  0  0  0  0  0  0  0
   -4.1953   47.5535   11.2016 C   0  0  0  0  0  0  0  0  0  0  0  0
   -3.9922   42.8039   10.0018 C   0  0  0  0  0  0  0  0  0  0  0  0
   -2.8183   50.8764    5.1822 C   0  0  1  0  0  0  0  0  0  0  0  0
   -5.1245   53.2672    5.4945 C   0  0  1  0  0  0  0  0  0  0  0  0
   -2.0013   50.8985    6.4065 C   0  0  0  0  0  0  0  0  0  0  0  0
   -5.1009   51.8049    5.6174 C   0  0  0  0  0  0  0  0  0  0  0  0
   -3.7864   54.0701    5.5231 C   0  0  0  0  0  0  0  0  0  0  0  0
   -2.7065   49.6178    4.2789 C   0  0  0  0  0  0  0  0  0  0  0  0
   -7.3859   53.9098    4.7940 C   0  0  0  0  0  0  0  0  0  0  0  0
   -5.6170   53.8202    3.2028 C   0  0  0  0  0  0  0  0  0  0  0  0
   -5.9970   54.8898    2.2960 C   0  0  0  0  0  0  0  0  0  0  0  0
    2.6792   47.5000    7.4582 H   0  0  0  0  0  0  0  0  0  0  0  0
   -2.6925   42.0247   11.3213 H   0  0  0  0  0  0  0  0  0  0  0  0
   -2.2698   43.8030   12.7939 H   0  0  0  0  0  0  0  0  0  0  0  0
   -3.9653   43.7313   12.5517 H   0  0  0  0  0  0  0  0  0  0  0  0
    0.4664   43.1771    8.3041 H   0  0  0  0  0  0  0  0  0  0  0  0
   -0.8283   47.3981    8.7590 H   0  0  0  0  0  0  0  0  0  0  0  0
   -0.2792   45.5951    7.7378 H   0  0  0  0  0  0  0  0  0  0  0  0
    3.1379   48.5142    9.5812 H   0  0  0  0  0  0  0  0  0  0  0  0
   -0.9486   45.6289   11.7589 H   0  0  0  0  0  0  0  0  0  0  0  0
   -0.9455   42.4793   10.4013 H   0  0  0  0  0  0  0  0  0  0  0  0
    0.5336   46.4998    5.2441 H   0  0  0  0  0  0  0  0  0  0  0  0
   -0.8135   46.9737    6.2934 H   0  0  0  0  0  0  0  0  0  0  0  0
   -0.3809   47.9081    4.8966 H   0  0  0  0  0  0  0  0  0  0  0  0
    2.5022   49.1381   11.8020 H   0  0  0  0  0  0  0  0  0  0  0  0
    1.1328   44.9490   10.7266 H   0  0  0  0  0  0  0  0  0  0  0  0
    2.2753   43.9761    9.8074 H   0  0  0  0  0  0  0  0  0  0  0  0
    1.0551   43.1820   10.7628 H   0  0  0  0  0  0  0  0  0  0  0  0
   -5.1419   45.7388   11.6755 H   0  0  0  0  0  0  0  0  0  0  0  0
    0.8544   51.3437    5.7115 H   0  0  0  0  0  0  0  0  0  0  0  0
    0.1003   50.1432    4.7638 H   0  0  0  0  0  0  0  0  0  0  0  0
   -5.0759   48.0630   11.0898 H   0  0  0  0  0  0  0  0  0  0  0  0
   -2.5298   51.7195    4.5556 H   0  0  0  0  0  0  0  0  0  0  0  0
   -5.5254   53.5751    6.4708 H   0  0  0  0  0  0  0  0  0  0  0  0
   -0.4875   50.7326    7.5204 H   0  0  0  0  0  0  0  0  0  0  0  0
   -4.4978   50.0341    5.6948 H   0  0  0  0  0  0  0  0  0  0  0  0
   -3.1750   53.8037    6.3873 H   0  0  0  0  0  0  0  0  0  0  0  0
   -3.1898   53.9106    4.6265 H   0  0  0  0  0  0  0  0  0  0  0  0
   -3.4524   49.6268    3.4793 H   0  0  0  0  0  0  0  0  0  0  0  0
   -2.8437   48.6998    4.8545 H   0  0  0  0  0  0  0  0  0  0  0  0
   -1.7595   49.5594    3.7516 H   0  0  0  0  0  0  0  0  0  0  0  0
    0.8036   49.0862   13.3837 H   0  0  0  0  0  0  0  0  0  0  0  0
   -3.7065   49.8454   10.4863 H   0  0  0  0  0  0  0  0  0  0  0  0
   -7.4685   54.7523    5.4832 H   0  0  0  0  0  0  0  0  0  0  0  0
   -7.8270   53.0393    5.2814 H   0  0  0  0  0  0  0  0  0  0  0  0
   -8.0586   54.1112    3.9572 H   0  0  0  0  0  0  0  0  0  0  0  0
   -5.1336   42.2136   11.3215 H   0  0  0  0  0  0  0  0  0  0  0  0
   -5.1154   55.4622    2.0027 H   0  0  0  0  0  0  0  0  0  0  0  0
   -6.4612   54.4790    1.3982 H   0  0  0  0  0  0  0  0  0  0  0  0
   -6.6927   55.6047    2.7353 H   0  0  0  0  0  0  0  0  0  0  0  0
   -3.1660   55.9031    5.4976 H   0  0  0  0  0  0  0  0  0  0  0  0
  1 23  2  0  0  0  0
  2 32  1  0  0  0  0
  2 80  1  0  0  0  0
  3 30  2  0  0  0  0
  4 35  1  0  0  0  0
  4 81  1  0  0  0  0
  5 31  2  0  0  0  0
  6 40  1  0  0  0  0
  6 85  1  0  0  0  0
  7 40  2  0  0  0  0
  8 43  2  0  0  0  0
  9 45  1  0  0  0  0
  9 89  1  0  0  0  0
 10 44  2  0  0  0  0
 11 48  2  0  0  0  0
 12 31  1  0  0  0  0
 12 33  1  0  0  0  0
 13 22  1  0  0  0  0
 13 23  1  0  0  0  0
 13 56  1  0  0  0  0
 14 20  1  0  0  0  0
 14 30  1  0  0  0  0
 14 59  1  0  0  0  0
 15 38  1  0  0  0  0
 15 43  1  0  0  0  0
 15 73  1  0  0  0  0
 16 44  1  0  0  0  0
 16 74  1  0  0  0  0
 17 47  1  0  0  0  0
 17 48  1  0  0  0  0
 12 18  1  0  0  0  0
 18 19  1  0  0  0  0
 18 23  1  0  0  0  0
 18 50  1  0  0  0  0
 19 25  2  0  0  0  0
 19 28  1  0  0  0  0
 20 21  1  0  0  0  0
 20 40  1  0  0  0  0
 20 51  1  0  0  0  0
 21 26  1  0  0  0  0
 21 52  1  0  0  0  0
 21 53  1  0  0  0  0
 22 30  1  0  0  0  0
 22 36  1  0  0  0  0
 22 54  1  0  0  0  0
 24 25  1  0  0  0  0
 24 27  1  0  0  0  0
 24 32  2  0  0  0  0
 25 55  1  0  0  0  0
 26 29  2  0  0  0  0
 26 37  1  0  0  0  0
 27 29  1  0  0  0  0
 27 35  2  0  0  0  0
 28 34  2  0  0  0  0
 28 57  1  0  0  0  0
 29 58  1  0  0  0  0
 31 38  1  0  0  0  0
 32 34  1  0  0  0  0
 33 60  1  0  0  0  0
 33 61  1  0  0  0  0
 33 62  1  0  0  0  0
 34 63  1  0  0  0  0
 35 39  1  0  0  0  0
 36 64  1  0  0  0  0
 36 65  1  0  0  0  0
 36 66  1  0  0  0  0
 37 39  2  0  0  0  0
 37 67  1  0  0  0  0
 38 68  1  0  0  0  0
 38 69  1  0  0  0  0
 39 70  1  0  0  0  0
 16 41  1  0  0  0  0
 41 43  1  0  0  0  0
 41 46  1  0  0  0  0
 41 71  1  0  0  0  0
 17 42  1  0  0  0  0
 42 44  1  0  0  0  0
 42 45  1  0  0  0  0
 42 72  1  0  0  0  0
 45 75  1  0  0  0  0
 45 76  1  0  0  0  0
 46 77  1  0  0  0  0
 46 78  1  0  0  0  0
 46 79  1  0  0  0  0
 47 82  1  0  0  0  0
 47 83  1  0  0  0  0
 47 84  1  0  0  0  0
 48 49  1  0  0  0  0
 49 86  1  0  0  0  0
 49 87  1  0  0  0  0
 49 88  1  0  0  0  0
M  END
>  <PUBCHEM_BONDANNOTATIONS>
18  12  5
41  16  6
42  17  5
19  25  8
19  28  8
20  40  5
22  36  6
24  25  8
24  32  8
26  29  8
26  37  8
27  29  8
27  35  8
28  34  8
32  34  8
35  39  8
37  39  8



>  <StdInChI>
InChI=1S/C32H40N6O11/c1-15(34-30(46)23(14-39)37(4)17(3)40)28(44)33-13-26(43)38(5)27-19-7-9-25(42)21(12-19)20-10-18(6-8-24(20)41)11-22(32(48)49)36-29(45)16(2)35-31(27)47/h6-10,12,15-16,22-23,27,39,41-42H,11,13-14H2,1-5H3,(H,33,44)(H,34,46)(H,35,47)(H,36,45)(H,48,49)/t15-,16+,22+,23-,27+/m1/s1



>  <StdInChIKey>
TUPFYYWHWXBPLS-YGBZZOJMSA-N



>  <AuxInfo>
1/1/N:46,36,49,47,33,37,28,39,34,29,21,25,38,45,41,22,48,26,19,27,24,20,42,35,32,31,18,43,30,44,23,40,15,16,13,14,17,12,9,11,4,2,5,8,3,10,1,6,7/E:(48,49)/it:im/rA:89cOOOOOOOOOOONNNNNNCCCCCCCCCCCCCCCCCCCCCCCCCCCCCCCCHHHHHHHHHHHHHHHHHHHHHHHHHHHHHHHHHHHHHHHH/rB:;;;;;;;;;;;;;;;;s12;s18;s14;s20;s13;d1s13s18;;d19s24;s21;s24;s19;d26s27;d3s14s22;d5s12;s2d24;s12;d28s32;s4d27;s22;s26;s15s31;s35d37;s6d7s20;s16;s17;d8s15s41;d10s16s42;s9s42;s41;s17;d11s17;s48;s18;s20;s21;s21;s22;s25;s13;s28;s29;s14;s33;s33;s33;s34;s36;s36;s36;s37;s38;s38;s39;s41;s42;s15;s16;s45;s45;s46;s46;s46;s2;s4;s47;s47;s47;s6;s49;s49;s49;s9;/rC:.8471,4.2277,3.8899;-4.1613,3.4858,-.7736;-1.6383,.188,3.5482;-2.6865,-.0983,-1.3335;2.3484,3.9789,-.5725;-4.3747,-2.5129,5.3548;-2.4196,-1.9054,5.163;.7515,-.3952,-2.5765;2.949,-2.1353,-6.5542;1.3273,-4.2988,-2.6819;5.0234,-3.7468,-3.7457;1.8579,2.5567,1.0565;-.2014,2.3631,3.5582;-3.1069,.8036,5.0246;1.8785,1.0737,-1.6939;2.1424,-2.5227,-2.0635;3.206,-4.4305,-4.8006;.8828,3.4295,1.6649;-.4038,3.4322,.8831;-4.072,-.2228,4.9201;-5.0793,-.0799,3.7264;-1.2656,2.3027,4.4879;.5172,3.3481,3.1019;-2.4997,2.258,.2932;-1.177,2.2522,.7856;-4.5198,-.0879,2.3447;-3.266,1.0998,.5732;-.9255,4.6002,.2827;-3.951,1.0885,1.8099;-2.0179,1.0451,4.3387;2.3417,2.8186,-.1721;-3.0001,3.4421,-.2953;2.3032,1.4287,1.787;-2.1979,4.601,-.3205;-3.2684,-.0714,-.2182;-2.2015,3.5477,4.4033;-4.5057,-1.2468,1.5358;2.8764,1.8894,-1.172;-3.9057,-1.234,.2607;-3.5987,-1.5872,5.1414;2.7778,-1.291,-1.8605;2.3613,-3.3149,-4.4801;1.8169,-.1857,-2.0085;1.9779,-3.3341,-3.0635;2.8111,-1.976,-5.1442;3.4303,-1.4797,-.4636;2.5941,-5.6451,-5.2106;4.5244,-4.3535,-4.6866;5.4934,-4.9001,-5.6209;1.3289,4.4301,1.5997;-4.6812,-.032,5.81;-5.6479,.8455,3.8593;-5.8458,-.8565,3.8073;-.8225,2.2954,5.4874;-.7863,1.3765,1.1452;-.0159,1.5518,3.1379;-.3901,5.4716,.2934;-3.9997,1.9452,2.3677;-3.2936,1.4391,5.6856;2.7243,1.7382,2.7455;1.4844,.7332,1.9756;3.0934,.8373,1.334;-2.5427,5.4628,-.7513;-2.6346,3.6528,3.4075;-1.6615,4.4688,4.6256;-3.0171,3.498,5.1278;-4.9262,-2.1165,1.8711;3.26,2.4127,-2.0548;3.7537,1.38,-.7907;-3.9199,-2.0867,-.3051;3.6016,-1.1318,-2.5552;1.3916,-3.4342,-4.984;1.0966,1.5539,-1.8867;1.7221,-2.8216,-1.281;2.0888,-1.1765,-4.9687;3.7806,-1.6397,-4.7804;4.0103,-2.4052,-.4103;2.6781,-1.5098,.3276;4.153,-.705,-.2272;-4.4732,4.2294,-1.1282;-2.6786,-.8313,-1.8215;2.0749,-5.5044,-6.1605;1.8603,-5.9888,-4.4804;3.2632,-6.4998,-5.3328;-5.2437,-2.3777,5.3902;6.0949,-4.0964,-6.0488;6.1576,-5.6004,-5.1122;5.0383,-5.422,-6.4627;3.3285,-1.2915,-6.8789;



>  <Formula>
C32 H40 N6 O11



>  <Mw>
684.693600

>  <SMILES>
O=C1[C@]([H])(C2C([H])=C([H])C(=C(C3=C(C([H])=C([H])C(=C3[H])C([H])([H])[C@@]([H])(C(=O)O[H])N([H])C([C@]([H])(C([H])([H])[H])N1[H])=O)O[H])C=2[H])O[H])N(C([H])([H])[H])C(C([H])([H])N([H])C([C@@]([H])(C([H])([H])[H])N([H])C([C@@]([H])(C([H])([H])O[H])N(C(C([H])([H])[H])=O)C([H])([H])[H])=O)=O)=O



>  <CSID>
4450019

$$$$
