1fr6
  PyMOL2.5          3D                             0

 28 28  0  0  0  0  0  0  0  0999 V2000
   48.2310   33.9010    1.4960 C   0  0  0  0  0  0  0  0  0  0  0  0
   52.8700   39.1170   -2.4080 S   0  0  0  0  0  0  0  0  0  0  0  0
   46.6480   36.1220   -2.3480 O   0  0  0  0  0  0  0  0  0  0  0  0
   50.6470   35.0580    0.0900 O   0  0  0  0  0  0  0  0  0  0  0  0
   48.8280   37.9600    1.8110 O   0  0  0  0  0  0  0  0  0  0  0  0
   46.1700   33.6480    0.0790 N   0  0  0  0  0  0  0  0  0  0  0  0
   48.8160   36.2650   -0.4060 N   0  0  0  0  0  0  0  0  0  0  0  0
   50.0230   38.3230    1.1880 N   0  0  0  0  0  0  0  0  0  0  0  0
   51.4320   39.6900   -0.4990 N   0  0  0  0  0  0  0  0  0  0  0  0
   52.3900   41.5870   -1.5800 N   0  0  0  0  0  0  0  0  0  0  0  0
   44.6750   34.4210    0.0370 S   0  0  0  0  0  0  0  0  0  0  0  0
   47.3810   34.4120    0.3530 C   0  0  0  0  0  0  0  0  0  0  0  0
   48.0810   35.0550   -0.8100 C   0  0  0  0  0  0  0  0  0  0  0  0
   47.3310   35.1440   -2.0740 C   0  0  0  0  0  0  0  0  0  0  0  0
   50.1050   36.1660    0.0380 C   0  0  0  0  0  0  0  0  0  0  0  0
   50.6070   37.5120    0.3910 C   0  0  0  0  0  0  0  0  0  0  0  0
   48.8870   37.9650    3.2380 C   0  0  0  0  0  0  0  0  0  0  0  0
   51.4190   38.3200   -0.5670 C   0  0  0  0  0  0  0  0  0  0  0  0
   52.1800   37.8120   -1.5860 C   0  0  0  0  0  0  0  0  0  0  0  0
   52.1820   40.2510   -1.4210 C   0  0  0  0  0  0  0  0  0  0  0  0
   47.8070   38.8560    3.8110 C   0  0  0  0  0  0  0  0  0  0  0  0
   48.5130   36.5560    3.7330 C   0  0  0  0  0  0  0  0  0  0  0  0
   50.3470   38.3460    3.5520 C   0  0  0  0  0  0  0  0  0  0  0  0
   51.3070   37.5910    3.2300 O   0  0  0  0  0  0  0  0  0  0  0  0
   50.7040   39.3800    4.1240 O   0  0  0  0  0  0  0  0  0  0  0  0
   43.9720   33.7490   -1.2060 O   0  0  0  0  0  0  0  0  0  0  0  0
   44.8260   35.9260   -0.0110 O   0  0  0  0  0  0  0  0  0  0  0  0
   43.8910   33.9610    1.3380 O   0  0  0  0  0  0  0  0  0  0  0  0
  1 12  1  0  0  0  0
  2 19  4  0  0  0  0
  2 20  4  0  0  0  0
  3 14  2  0  0  0  0
  4 15  2  0  0  0  0
  5  8  1  0  0  0  0
  5 17  1  0  0  0  0
  6 11  1  0  0  0  0
  6 12  1  0  0  0  0
  7 13  1  0  0  0  0
  7 15  1  0  0  0  0
  8 16  1  0  0  0  0
  9 18  4  0  0  0  0
  9 20  4  0  0  0  0
 10 20  1  0  0  0  0
 11 26  1  0  0  0  0
 11 27  2  0  0  0  0
 11 28  2  0  0  0  0
 12 13  1  0  0  0  0
 13 14  1  0  0  0  0
 15 16  1  0  0  0  0
 16 18  1  0  0  0  0
 17 21  1  0  0  0  0
 17 22  1  0  0  0  0
 17 23  1  0  0  0  0
 18 19  4  0  0  0  0
 23 24  4  0  0  0  0
 23 25  4  0  0  0  0
M  END
>  <pdb_header>
HEADER    1fr6
CRYST1   98.070   84.630   89.770  90.00  90.00  90.00 P 21 21 21    1


$$$$
