# created with PyMOL 2.5.4
@<TRIPOS>MOLECULE
BAL0019193
26 27 1                 
SMALL
USER_CHARGES
@<TRIPOS>ATOM
1	 C11	-12.180	10.152	-8.875	C.3	1	JZA1	0.000	
2	1H11	-11.265	10.772	-9.024	 H	1	JZA1	0.000	
3	2H11	-12.638	10.694	-8.015	 H	1	JZA1	0.000	
4	 C13	-11.793	8.699	-8.461	C.3	1	JZA1	0.000	
5	1H13	-12.238	8.431	-7.474	 H	1	JZA1	0.000	
6	2H13	-10.712	8.633	-8.194	 H	1	JZA1	0.000	
7	 O14	-12.146	7.707	-9.486	O.3	1	JZA1	0.000	
8	 C12	-13.554	7.784	-9.946	C.3	1	JZA1	0.000	
9	1H12	-14.197	7.098	-9.348	 H	1	JZA1	0.000	
10	2H12	-13.661	7.316	-10.952	 H	1	JZA1	0.000	
11	 C10	-14.146	9.216	-9.949	C.3	1	JZA1	0.000	
12	1H10	-14.786	9.401	-9.055	 H	1	JZA1	0.000	
13	2H10	-14.923	9.341	-10.739	 H	1	JZA1	0.000	
14	  N9	-13.065	10.230	-10.073	N.3	1	JZA1	0.000	
15	  C7	-13.644	11.609	-10.315	C.3	1	JZA1	0.000	
16	  O8	-14.168	12.292	-9.406	O.3	1	JZA1	0.000	
17	  N6	-13.552	12.086	-11.730	N.3	1	JZA1	0.000	
18	  C5	-14.013	13.518	-11.842	C.3	1	JZA1	0.000	
19	 H51	-13.254	14.271	-12.158	 H	1	JZA1	0.000	
20	 H52	-14.243	14.052	-10.890	 H	1	JZA1	0.000	
21	  C4	-15.196	13.265	-12.809	C.3	1	JZA1	0.000	
22	 H41	-15.304	13.843	-13.757	 H	1	JZA1	0.000	
23	 H42	-16.237	13.565	-12.543	 H	1	JZA1	0.000	
24	  S1	-14.688	11.520	-12.818	S.O2	1	JZA1	0.000	
25	  O2	-14.094	11.058	-14.133	O.3	1	JZA1	0.000	
26	  O3	-15.747	10.606	-12.254	O.3	1	JZA1	0.000	
@<TRIPOS>BOND
1 1 2 1
2 1 3 1
3 1 4 1
4 1 14 1
5 4 5 1
6 4 6 1
7 4 7 1
8 7 8 1
9 8 9 1
10 8 10 1
11 8 11 1
12 11 12 1
13 11 13 1
14 11 14 1
15 14 15 1
16 15 16 1
17 15 17 1
18 17 18 1
19 17 24 1
20 18 19 1
21 18 20 1
22 18 21 1
23 21 22 1
24 21 23 1
25 21 24 1
26 24 25 1
27 24 26 1
@<TRIPOS>SUBSTRUCTURE
1	JZA1	1	GROUP	1 A	JZA
