# created with PyMOL 2.5.4
@<TRIPOS>MOLECULE
BAL4850C
60 63 8                 
SMALL
USER_CHARGES
@<TRIPOS>ATOM
1	   N	-29.252	46.963	60.900	N.am	1	DSE2	0.000	
2	  CA	-28.803	45.746	60.185	C.3	1	DSE2	0.000	
3	   C	-29.968	45.273	59.343	C.2	1	DSE2	0.000	
4	   O	-30.874	46.049	59.037	O.2	1	DSE2	0.000	
5	  CB	-27.635	46.018	59.215	C.3	1	DSE2	0.000	
6	  CN	-28.912	48.341	60.465	C.3	1	DSE2	0.000	
7	  OG	-26.400	46.043	59.926	O.3	1	DSE2	0.000	
8	   N	-29.901	44.005	58.953	N.am	2	DAL3	0.000	
9	  CA	-30.904	43.434	58.050	C.3	2	DAL3	0.000	
10	  CB	-31.012	41.927	58.313	C.3	2	DAL3	0.000	
11	   C	-30.384	43.772	56.636	C.2	2	DAL3	0.000	
12	   O	-31.068	43.568	55.626	O.2	2	DAL3	0.000	
13	   N	-29.012	44.329	56.541	N.am	3	GLY4	0.000	
14	  CA	-28.333	44.672	55.292	C.3	3	GLY4	0.000	
15	   C	-27.870	43.399	54.566	C.2	3	GLY4	0.000	
16	   O	-27.796	42.314	55.154	O.2	3	GLY4	0.000	
17	   N	-27.564	43.578	53.277	N.am	4	02V5	0.000	
18	  C1	-27.707	44.956	52.742	C.3	4	02V5	0.000	
19	  CA	-27.119	42.434	52.472	C.3	4	02V5	0.000	
20	 C19	-27.454	42.671	50.993	C.2	4	02V5	0.000	
21	 C20	-26.426	42.642	50.052	C.2	4	02V5	0.000	
22	 C21	-28.769	42.911	50.586	C.2	4	02V5	0.000	
23	 C22	-26.693	42.845	48.697	C.2	4	02V5	0.000	
24	 C23	-29.039	43.126	49.234	C.2	4	02V5	0.000	
25	 C24	-28.016	43.092	48.284	C.2	4	02V5	0.000	
26	   C	-25.607	42.207	52.591	C.2	4	02V5	0.000	
27	   O	-24.846	43.097	52.982	O.2	4	02V5	0.000	
28	  O2	-30.194	43.339	48.867	O.2	4	02V5	0.000	
29	   N	-25.222	40.987	52.186	N.am	5	ALA6	0.000	
30	  CA	-23.816	40.562	52.104	C.3	5	ALA6	0.000	
31	   C	-23.763	39.728	50.843	C.2	5	ALA6	0.000	
32	   O	-24.425	38.697	50.778	O.2	5	ALA6	0.000	
33	  CB	-23.403	39.730	53.318	C.3	5	ALA6	0.000	
34	   N	-23.067	40.225	49.823	N.am	6	TYR7	0.000	
35	  CA	-23.008	39.500	48.544	C.3	6	TYR7	0.000	
36	   C	-21.998	38.371	48.685	C.2	6	TYR7	0.000	
37	   O	-21.026	38.586	49.436	O.co2	6	TYR7	0.000	
38	  CB	-22.572	40.447	47.424	C.3	6	TYR7	0.000	
39	  CG	-23.552	41.615	47.213	C.2	6	TYR7	0.000	
40	 CD1	-24.693	41.743	48.007	C.2	6	TYR7	0.000	
41	 CD2	-23.314	42.568	46.217	C.2	6	TYR7	0.000	
42	 CE1	-25.595	42.791	47.835	C.2	6	TYR7	0.000	
43	 CE2	-24.205	43.639	46.032	C.2	6	TYR7	0.000	
44	  CZ	-25.338	43.754	46.844	C.2	6	TYR7	0.000	
45	  OH	-26.192	44.792	46.639	O.3	6	TYR7	0.000	
46	 OXT	-22.206	37.313	48.053	O.co2	6	TYR7	0.000	
47	   C	-30.040	46.836	61.992	C.2	7	02U1	0.000	
48	   O	-30.405	45.753	62.464	O.2	7	02U1	0.000	
49	 CH3	-30.485	48.140	62.686	C.3	7	02U1	0.000	
50	  C1	-29.264	42.389	46.355	C.3	8	RAM8	0.000	
51	  C2	-29.956	42.882	45.083	C.3	8	RAM8	0.000	
52	  C3	-28.919	43.081	43.971	C.3	8	RAM8	0.000	
53	  C4	-28.008	41.858	43.822	C.3	8	RAM8	0.000	
54	  C5	-27.433	41.432	45.174	C.3	8	RAM8	0.000	
55	  C6	-26.601	40.158	45.011	C.3	8	RAM8	0.000	
56	  O1	-28.343	43.297	46.970	O.3	8	RAM8	0.000	
57	  O2	-30.923	41.913	44.663	O.3	8	RAM8	0.000	
58	  O3	-29.590	43.301	42.728	O.3	8	RAM8	0.000	
59	  O4	-26.938	42.186	42.931	O.3	8	RAM8	0.000	
60	  O5	-28.505	41.199	46.100	O.3	8	RAM8	0.000	
@<TRIPOS>BOND
1 1 2 1
2 1 6 1
3 1 47 1
4 2 3 1
5 2 5 1
6 3 4 2
7 3 8 1
8 5 7 1
9 8 9 1
10 9 10 1
11 9 11 1
12 11 12 2
13 11 13 1
14 13 14 1
15 14 15 1
16 15 16 2
17 15 17 1
18 17 18 1
19 17 19 1
20 19 20 1
21 19 26 1
22 20 21 ar
23 20 22 ar
24 21 23 ar
25 22 24 ar
26 23 25 ar
27 23 42 1
28 24 25 ar
29 24 28 2
30 25 56 1
31 26 27 2
32 26 29 1
33 29 30 1
34 30 31 1
35 30 33 1
36 31 32 2
37 31 34 1
38 34 35 1
39 35 36 1
40 35 38 1
41 36 37 2
42 36 46 1
43 38 39 1
44 39 40 2
45 39 41 1
46 40 42 1
47 41 43 2
48 42 44 2
49 43 44 1
50 44 45 1
51 47 48 2
52 47 49 1
53 50 51 1
54 50 56 1
55 50 60 1
56 51 52 1
57 51 57 1
58 52 53 1
59 52 58 1
60 53 54 1
61 53 59 1
62 54 55 1
63 54 60 1
@<TRIPOS>SUBSTRUCTURE
1	DSE2	1	RESIDUE	1 I	DSE
2	DAL3	8	RESIDUE	1 I	DAL
3	GLY4	13	RESIDUE	1 I	GLY
4	02V5	17	RESIDUE	1 I	02V
5	ALA6	29	RESIDUE	1 I	ALA
6	TYR7	34	RESIDUE	1 I	TYR
7	02U1	47	GROUP	1 I	02U
8	RAM8	50	GROUP	1 I	RAM
