obj01
  PyMOL2.5          3D                             0

 29 31  0  0  0  0  0  0  0  0999 V2000
   46.6859   26.9901   44.5931 H   0  0  0  0  0  0  0  0  0  0  0  0
   47.0204   24.9100   44.6512 H   0  0  0  0  0  0  0  0  0  0  0  0
   47.5410   30.8440   43.6370 C   0  0  0  0  0  0  0  0  0  0  0  0
   47.7180   31.0870   42.2710 C   0  0  0  0  0  0  0  0  0  0  0  0
   48.0740   23.6850   43.3000 C   0  0  0  0  0  0  0  0  0  0  0  0
   49.2950   23.6190   42.5980 C   0  0  0  0  0  0  0  0  0  0  0  0
   49.8230   22.3920   42.1510 C   0  0  0  0  0  0  0  0  0  0  0  0
   47.9230   21.2530   43.1130 C   0  0  0  0  0  0  0  0  0  0  0  0
   49.4060   19.5470   40.7520 C   0  0  0  0  0  0  0  0  0  0  0  0
   48.3030   19.9870   40.0070 C   0  0  0  0  0  0  0  0  0  0  0  0
   48.1360   19.5210   38.7130 C   0  0  0  0  0  0  0  0  0  0  0  0
   47.9040   31.5700   39.5280 F   0  0  0  0  0  0  0  0  0  0  0  0
   47.9650   30.2390   39.8940 C   0  0  0  0  0  0  0  0  0  0  0  0
   49.2240   29.7680   39.6020 F   0  0  0  0  0  0  0  0  0  0  0  0
   47.0530   29.5380   39.1390 F   0  0  0  0  0  0  0  0  0  0  0  0
   47.7360   30.0130   41.3680 C   0  0  0  0  0  0  0  0  0  0  0  0
   47.5650   28.6970   41.8480 C   0  0  0  0  0  0  0  0  0  0  0  0
   47.3800   28.4350   43.2180 C   0  0  0  0  0  0  0  0  0  0  0  0
   47.3910   29.5280   44.1070 C   0  0  0  0  0  0  0  0  0  0  0  0
   47.2070   27.1220   43.7380 N   0  0  0  0  0  0  0  0  0  0  0  0
   47.7310   26.0460   43.1030 C   0  0  0  0  0  0  0  0  0  0  0  0
   48.3390   26.1070   41.9950 O   0  0  0  0  0  0  0  0  0  0  0  0
   47.5430   24.9000   43.7870 N   0  0  0  0  0  0  0  0  0  0  0  0
   49.1480   21.1950   42.4230 C   0  0  0  0  0  0  0  0  0  0  0  0
   47.3940   22.4850   43.5540 C   0  0  0  0  0  0  0  0  0  0  0  0
   49.6280   19.9910   42.0130 O   0  0  0  0  0  0  0  0  0  0  0  0
   48.9790   18.6650   38.1290 N   0  0  0  0  0  0  0  0  0  0  0  0
   50.0280   18.2370   38.8410 C   0  0  0  0  0  0  0  0  0  0  0  0
   50.2880   18.6480   40.1430 C   0  0  0  0  0  0  0  0  0  0  0  0
  3  4  4  0  0  0  0
  3 19  4  0  0  0  0
  4 16  4  0  0  0  0
  5  6  4  0  0  0  0
  5 23  1  0  0  0  0
  5 25  4  0  0  0  0
  6  7  4  0  0  0  0
  7 24  4  0  0  0  0
  8 24  4  0  0  0  0
  8 25  4  0  0  0  0
  9 10  4  0  0  0  0
  9 26  1  0  0  0  0
  9 29  4  0  0  0  0
 10 11  4  0  0  0  0
 11 27  4  0  0  0  0
 12 13  1  0  0  0  0
 13 14  1  0  0  0  0
 13 15  1  0  0  0  0
 13 16  1  0  0  0  0
 16 17  4  0  0  0  0
 17 18  4  0  0  0  0
 18 19  4  0  0  0  0
 18 20  1  0  0  0  0
  1 20  1  0  0  0  0
 20 21  1  0  0  0  0
 21 22  2  0  0  0  0
 21 23  1  0  0  0  0
  2 23  1  0  0  0  0
 24 26  1  0  0  0  0
 27 28  4  0  0  0  0
 28 29  4  0  0  0  0
M  END
$$$$
