1b12_penem
  PyMOL2.5          3D                             0

 20 21  0  0  0  0  0  0  0  0999 V2000
   65.8348   21.2216   11.6456 S   0  0  0  0  0  0  0  0  0  0  0  0
   64.7897   20.9322   10.2654 C   0  0  0  0  0  0  0  0  0  0  0  0
   63.8182   21.8282   10.0645 C   0  0  0  0  0  0  0  0  0  0  0  0
   63.7288   22.8194   11.0100 N   0  0  0  0  0  0  0  0  0  0  0  0
   64.6015   22.5332   12.1631 C   0  0  0  0  0  0  0  0  0  0  0  0
   65.0571   24.0134   12.1069 C   0  0  0  0  0  0  0  0  0  0  0  0
   64.3119   24.0371   10.7634 C   0  0  0  0  0  0  0  0  0  0  0  0
   64.3089   24.7543    9.7900 O   0  0  0  0  0  0  0  0  0  0  0  0
   62.8678   21.8133    8.9203 C   0  0  0  0  0  0  0  0  0  0  0  0
   61.8468   22.4830    8.8754 O   0  0  0  0  0  0  0  0  0  0  0  0
   63.2928   20.9525    7.9613 O   0  0  0  0  0  0  0  0  0  0  0  0
   62.4268   20.8896    6.8257 C   0  0  0  0  0  0  0  0  0  0  0  0
   63.0277   19.9073    5.8680 C   0  0  0  0  0  0  0  0  0  0  0  0
   62.4147   18.8012    5.4261 C   0  0  0  0  0  0  0  0  0  0  0  0
   66.5327   24.3861   12.0536 C   0  0  0  0  0  0  0  0  0  0  0  0
   66.6842   25.8988   11.9096 C   0  0  0  0  0  0  0  0  0  0  0  0
   67.1085   23.9988   13.3236 O   0  0  0  0  0  0  0  0  0  0  0  0
   68.3998   23.6283   13.4980 C   0  0  0  0  0  0  0  0  0  0  0  0
   68.8291   23.3744   14.6192 O   0  0  0  0  0  0  0  0  0  0  0  0
   69.2668   23.5204   12.2799 C   0  0  0  0  0  0  0  0  0  0  0  0
  1  2  1  0  0  0  0
  1  5  1  0  0  0  0
  2  3  2  0  0  0  0
  3  4  1  0  0  0  0
  3  9  1  0  0  0  0
  4  5  1  0  0  0  0
  4  7  1  0  0  0  0
  5  6  1  0  0  0  0
  6  7  1  0  0  0  0
  6 15  1  0  0  0  0
  7  8  2  0  0  0  0
  9 10  2  0  0  0  0
  9 11  1  0  0  0  0
 11 12  1  0  0  0  0
 12 13  1  0  0  0  0
 13 14  2  0  0  0  0
 15 16  1  0  0  0  0
 15 17  1  0  0  0  0
 17 18  1  0  0  0  0
 18 19  2  0  0  0  0
 18 20  1  0  0  0  0
M  END
>  <pdb_header>
CRYST1  110.700  113.200   99.200  90.00  90.00  90.00 P 21 21 2     1


$$$$
