1b12_penem
  PyMOL2.5          3D                             0

 20 21  0  0  0  0  0  0  0  0999 V2000
   65.7780   21.6200   10.9100 S   0  0  0  0  0  0  0  0  0  0  0  0
   64.7140   21.4700    9.4850 C   0  0  0  0  0  0  0  0  0  0  0  0
   63.6150   22.2380    9.5570 C   0  0  0  0  0  0  0  0  0  0  0  0
   63.5060   22.9860   10.7560 N   0  0  0  0  0  0  0  0  0  0  0  0
   64.6280   22.8510   11.7120 C   0  0  0  0  0  0  0  0  0  0  0  0
   65.0670   24.3170   11.7680 C   0  0  0  0  0  0  0  0  0  0  0  0
   64.8880   24.9530   10.3780 C   0  0  0  0  0  0  0  0  0  0  0  0
   65.5740   24.5750    9.4240 O   0  0  0  0  0  0  0  0  0  0  0  0
   62.5890   22.3260    8.5010 C   0  0  0  0  0  0  0  0  0  0  0  0
   61.5950   23.0010    8.4960 O   0  0  0  0  0  0  0  0  0  0  0  0
   62.9710   21.4980    7.5450 O   0  0  0  0  0  0  0  0  0  0  0  0
   62.0760   20.3660    7.1960 C   0  0  0  0  0  0  0  0  0  0  0  0
   62.4660   19.5720    5.9990 C   0  0  0  0  0  0  0  0  0  0  0  0
   63.1700   18.5960    5.9430 C   0  0  0  0  0  0  0  0  0  0  0  0
   66.4770   24.3600   12.1180 C   0  0  0  0  0  0  0  0  0  0  0  0
   66.8960   25.7500   12.4900 C   0  0  0  0  0  0  0  0  0  0  0  0
   66.7850   23.3390   13.1280 O   0  0  0  0  0  0  0  0  0  0  0  0
   68.0990   23.0690   13.4580 C   0  0  0  0  0  0  0  0  0  0  0  0
   68.4450   22.4420   14.4330 O   0  0  0  0  0  0  0  0  0  0  0  0
   69.0860   23.5710   12.4750 C   0  0  0  0  0  0  0  0  0  0  0  0
  1  2  1  0  0  0  0
  1  5  1  0  0  0  0
  2  3  2  0  0  0  0
  3  4  1  0  0  0  0
  3  9  1  0  0  0  0
  4  5  1  0  0  0  0
  4  7  1  0  0  0  0
  5  6  1  0  0  0  0
  6  7  1  0  0  0  0
  6 15  1  0  0  0  0
  7  8  2  0  0  0  0
  9 10  2  0  0  0  0
  9 11  1  0  0  0  0
 11 12  1  0  0  0  0
 12 13  1  0  0  0  0
 13 14  2  0  0  0  0
 15 16  1  0  0  0  0
 15 17  1  0  0  0  0
 17 18  1  0  0  0  0
 18 19  2  0  0  0  0
 18 20  1  0  0  0  0
M  END
>  <pdb_header>
CRYST1  110.700  113.200   99.200  90.00  90.00  90.00 P 21 21 2     1


$$$$
