
     RDKit          3D

 37 41  0  0  0  0  0  0  0  0999 V2000
   -2.8438   -2.3852    2.6113 C   0  0  0  0  0  0  0  0  0  0  0  0
   -1.7601   -1.3645    2.5773 C   0  0  0  0  0  0  0  0  0  0  0  0
   -0.5853   -1.7062    3.2303 C   0  0  0  0  0  0  0  0  0  0  0  0
    0.6118   -1.1082    2.8617 C   0  0  0  0  0  0  0  0  0  0  0  0
    0.5817   -0.0496    1.9705 C   0  0  0  0  0  0  0  0  0  0  0  0
    1.8257    0.3056    1.3548 N   0  0  0  0  0  0  0  0  0  0  0  0
    1.8483    0.3036   -0.0776 C   0  0  0  0  0  0  0  0  0  0  0  0
    0.8579   -0.1666   -0.7150 O   0  0  0  0  0  0  0  0  0  0  0  0
    3.1027    0.3948   -0.8170 C   0  0  0  0  0  0  0  0  0  0  0  0
    3.3654    1.5389   -1.5493 C   0  0  0  0  0  0  0  0  0  0  0  0
    4.5005    1.5964   -2.3416 C   0  0  0  0  0  0  0  0  0  0  0  0
    5.2195    0.4261   -2.5503 C   0  0  0  0  0  0  0  0  0  0  0  0
    6.6359    0.4576   -3.0219 C   0  0  0  0  0  0  0  0  0  0  0  0
    7.5368    0.0336   -1.9714 N   0  0  0  0  0  0  0  0  0  0  0  0
    7.0603   -1.1851   -1.3682 C   0  0  0  0  0  0  0  0  0  0  0  0
    8.0110   -1.6711   -0.3090 C   0  0  0  0  0  0  0  0  0  0  0  0
    8.8591   -0.6246    0.2031 N   0  0  0  0  0  0  0  0  0  0  0  0
   10.0489   -0.4190   -0.5833 C   0  0  0  0  0  0  0  0  0  0  0  0
    8.0683    0.5694    0.3702 C   0  0  0  0  0  0  0  0  0  0  0  0
    7.6614    1.0997   -0.9933 C   0  0  0  0  0  0  0  0  0  0  0  0
    4.5410   -0.7620   -2.3256 C   0  0  0  0  0  0  0  0  0  0  0  0
    3.6556   -0.7977   -1.2548 C   0  0  0  0  0  0  0  0  0  0  0  0
   -0.6377    0.3869    1.4650 C   0  0  0  0  0  0  0  0  0  0  0  0
   -1.8205   -0.2900    1.6988 C   0  0  0  0  0  0  0  0  0  0  0  0
   -2.8338   -0.3489    0.7055 N   0  0  0  0  0  0  0  0  0  0  0  0
   -4.0280    0.4043    0.7400 C   0  0  0  0  0  0  0  0  0  0  0  0
   -4.0877    1.7302    0.9253 N   0  0  0  0  0  0  0  0  0  0  0  0
   -5.0957    2.4691    0.4116 C   0  0  0  0  0  0  0  0  0  0  0  0
   -6.1389    1.8515   -0.2522 C   0  0  0  0  0  0  0  0  0  0  0  0
   -6.1760    0.4797   -0.2532 C   0  0  0  0  0  0  0  0  0  0  0  0
   -7.4493   -0.2365   -0.3561 C   0  0  0  0  0  0  0  0  0  0  0  0
   -8.3675    0.0955   -1.3434 C   0  0  0  0  0  0  0  0  0  0  0  0
   -9.6691   -0.2870   -1.1630 C   0  0  0  0  0  0  0  0  0  0  0  0
  -10.1383   -0.7880    0.0432 C   0  0  0  0  0  0  0  0  0  0  0  0
   -9.2628   -0.9334    1.0520 N   0  0  0  0  0  0  0  0  0  0  0  0
   -7.9575   -0.8612    0.7719 C   0  0  0  0  0  0  0  0  0  0  0  0
   -5.1400   -0.1985    0.2536 N   0  0  0  0  0  0  0  0  0  0  0  0
  1  2  1  0
  2  3  2  0
  3  4  1  0
  4  5  2  0
  5  6  1  0
  6  7  1  0
  7  8  2  0
  7  9  1  0
  9 10  2  0
 10 11  1  0
 11 12  2  0
 12 13  1  0
 13 14  1  0
 14 15  1  0
 15 16  1  0
 16 17  1  0
 17 18  1  0
 17 19  1  0
 19 20  1  0
 12 21  1  0
 21 22  2  0
  5 23  1  0
 23 24  2  0
 24 25  1  0
 25 26  1  0
 26 27  2  0
 27 28  1  0
 28 29  2  0
 29 30  1  0
 30 31  1  0
 31 32  2  0
 32 33  1  0
 33 34  2  0
 34 35  1  0
 35 36  2  0
 30 37  2  0
 24  2  1  0
 37 26  1  0
 22  9  1  0
 36 31  1  0
 20 14  1  0
M  END
>  <zinc_id>  (1) 
ZINC000019632618

>  <smiles>  (1) 
Cc1ccc(NC(=O)c2ccc(CN3CCN(C)CC3)cc2)cc1Nc1nccc(-c2cccnc2)n1

$$$$
