REMARK SMILES Cc1ccc(NC(=O)c2cccnc2)cc1Nc1nccc(-c2cccnc2)n1
REMARK SMILES IDX 16 1 15 2 5 3 4 4 3 5 2 6 1 7 17 8 18 10 22 11 29 12 21 13
REMARK SMILES IDX 20 14 19 15 23 16 25 17 26 18 24 19 27 20 28 21 6 22 7 24
REMARK SMILES IDX 8 25 9 26 10 27 14 28 11 29 13 30 12 31
REMARK H PARENT 17 9 6 23
REMARK Flexibility Score: inf
ROOT
ATOM      1  C   UNL     1      15.637  54.085  12.301  1.00  0.00     0.046 A 
ATOM      2  C   UNL     1      15.549  53.177  13.408  1.00  0.00     0.052 A 
ATOM      3  C   UNL     1      16.533  52.152  13.573  1.00  0.00     0.043 A 
ATOM      4  C   UNL     1      17.547  52.058  12.642  1.00  0.00     0.026 A 
ATOM      5  C   UNL     1      17.637  52.946  11.560  1.00  0.00     0.008 A 
ATOM      6  C   UNL     1      16.675  53.963  11.363  1.00  0.00    -0.027 A 
ATOM      7  C   UNL     1      16.888  54.838  10.147  1.00  0.00     0.046 C 
ENDROOT
BRANCH   1   8
ATOM      8  N   UNL     1      14.643  55.062  12.195  1.00  0.00    -0.324 N 
ATOM      9  H   UNL     1      13.743  54.789  11.828  1.00  0.00     0.170 HD
BRANCH   8  10
ATOM     10  C   UNL     1      14.818  56.348  12.556  1.00  0.00     0.227 A 
ATOM     11  C   UNL     1      13.998  58.571  12.757  1.00  0.00     0.077 A 
ATOM     12  N   UNL     1      13.861  57.258  12.402  1.00  0.00    -0.213 NA
ATOM     13  C   UNL     1      15.218  58.985  13.318  1.00  0.00     0.049 A 
ATOM     14  C   UNL     1      16.235  58.029  13.484  1.00  0.00     0.117 A 
ATOM     15  N   UNL     1      16.012  56.747  13.102  1.00  0.00    -0.221 NA
BRANCH  11  16
ATOM     16  C   UNL     1      12.884  59.461  12.532  1.00  0.00     0.019 A 
ATOM     17  C   UNL     1      11.753  61.626  12.719  1.00  0.00     0.021 A 
ATOM     18  C   UNL     1      10.655  61.083  12.023  1.00  0.00     0.111 A 
ATOM     19  C   UNL     1      12.878  60.802  12.973  1.00  0.00     0.013 A 
ATOM     20  N   UNL     1      10.681  59.794  11.609  1.00  0.00    -0.264 NA
ATOM     21  C   UNL     1      11.745  58.978  11.837  1.00  0.00     0.121 A 
ENDBRANCH  11  16
ENDBRANCH   8  10
ENDBRANCH   1   8
BRANCH   3  22
ATOM     22  N   UNL     1      16.470  51.207  14.611  1.00  0.00    -0.322 N 
ATOM     23  H   UNL     1      17.232  50.545  14.632  1.00  0.00     0.170 HD
ATOM     24  C   UNL     1      15.560  51.051  15.569  1.00  0.00     0.257 C 
ATOM     25  O   UNL     1      14.578  51.771  15.718  1.00  0.00    -0.269 OA
BRANCH  24  26
ATOM     26  C   UNL     1      15.695  49.915  16.483  1.00  0.00     0.058 A 
ATOM     27  C   UNL     1      14.528  49.263  16.982  1.00  0.00     0.017 A 
ATOM     28  C   UNL     1      16.951  49.422  16.873  1.00  0.00     0.124 A 
ATOM     29  C   UNL     1      14.646  48.155  17.852  1.00  0.00     0.021 A 
ATOM     30  N   UNL     1      17.044  48.345  17.714  1.00  0.00    -0.264 NA
ATOM     31  C   UNL     1      15.941  47.703  18.210  1.00  0.00     0.111 A 
ENDBRANCH  24  26
ENDBRANCH   3  22
TORSDOF 5
