MODEL 1
REMARK VINA RESULT:    -5.776      0.000      0.000
REMARK INTER + INTRA:         -15.218
REMARK INTER:                  -8.755
REMARK INTRA:                  -6.463
REMARK UNBOUND:                -7.078
REMARK SMILES C=CCOC(=O)C1=CS[C@H]2[C@@H]([C@@H](C)OC(C)=O)C(=O)N12
REMARK SMILES IDX 9 1 19 2 20 3 11 4 10 5 18 6 7 7 8 8 12 9 13 10 14 11 15 12
REMARK SMILES IDX 17 13 16 14 5 15 6 16 4 17 3 18 2 19 1 20
REMARK H PARENT
REMARK Flexibility Score: inf
ROOT
ATOM      1  S   UNL     1      63.196  22.528  78.901  1.00  0.00    -0.105 SA
ATOM      2  O   UNL     1      66.065  24.567  81.727  1.00  0.00    -0.274 OA
ATOM      3  N   UNL     1      64.803  22.712  80.987  1.00  0.00    -0.291 N 
ATOM      4  C   UNL     1      65.853  23.538  79.392  1.00  0.00     0.153 C 
ATOM      5  C   UNL     1      64.902  22.341  79.563  1.00  0.00     0.169 C 
ATOM      6  C   UNL     1      65.686  23.752  80.917  1.00  0.00     0.238 C 
ATOM      7  C   UNL     1      63.515  22.807  81.439  1.00  0.00     0.137 C 
ATOM      8  C   UNL     1      62.555  22.700  80.512  1.00  0.00     0.077 C 
ENDROOT
BRANCH   4   9
ATOM      9  C   UNL     1      65.316  24.664  78.543  1.00  0.00     0.189 C 
ATOM     10  C   UNL     1      65.850  26.013  79.012  1.00  0.00     0.054 C 
BRANCH   9  11
ATOM     11  O   UNL     1      65.701  24.459  77.183  1.00  0.00    -0.462 OA
BRANCH  11  12
ATOM     12  C   UNL     1      65.163  25.330  76.280  1.00  0.00     0.302 C 
ATOM     13  O   UNL     1      65.761  26.214  75.681  1.00  0.00    -0.253 OA
ATOM     14  C   UNL     1      63.701  25.048  76.117  1.00  0.00     0.139 C 
ENDBRANCH  11  12
ENDBRANCH   9  11
ENDBRANCH   4   9
BRANCH   7  15
ATOM     15  C   UNL     1      63.223  23.089  82.837  1.00  0.00     0.355 C 
ATOM     16  O   UNL     1      62.287  23.784  83.214  1.00  0.00    -0.244 OA
BRANCH  15  17
ATOM     17  O   UNL     1      64.144  22.462  83.617  1.00  0.00    -0.457 OA
BRANCH  17  18
ATOM     18  C   UNL     1      63.619  21.702  84.710  1.00  0.00     0.260 C 
BRANCH  18  19
ATOM     19  C   UNL     1      64.246  22.183  85.976  1.00  0.00     0.006 C 
ATOM     20  C   UNL     1      65.414  21.735  86.448  1.00  0.00     0.007 C 
ENDBRANCH  18  19
ENDBRANCH  17  18
ENDBRANCH  15  17
ENDBRANCH   7  15
TORSDOF 7
BEGIN_RES SER A  90
REMARK  2 active torsions:
REMARK  status: ('A' for Active; 'I' for Inactive)
REMARK    1  A    between atoms: CA   and  CB  
REMARK    2  A    between atoms: CB   and  OG  
ROOT
ATOM      1  CA  SER A  90      64.797  27.426  83.208  1.00 28.94     0.292 C 
ENDROOT
BRANCH   1   2
ATOM      2  CB  SER A  90      64.021  26.161  83.621  1.00 29.63     0.194 C 
BRANCH   2   3
ATOM      3  OG  SER A  90      64.755  25.342  84.515  1.00 30.29    -0.550 OA
ATOM      4  HG  SER A  90      65.668  25.259  84.264  1.00  0.00     0.310 HD
ENDBRANCH   2   3
ENDBRANCH   1   2
END_RES SER A  90
BEGIN_RES SER A  88
REMARK  2 active torsions:
REMARK  status: ('A' for Active; 'I' for Inactive)
REMARK    3  A    between atoms: CA   and  CB  
REMARK    4  A    between atoms: CB   and  OG  
ROOT
ATOM      5  CA  SER A  88      69.162  24.022  82.855  1.00 38.41     0.292 C 
ENDROOT
BRANCH   5   6
ATOM      6  CB  SER A  88      67.754  23.445  82.669  1.00 37.99     0.194 C 
BRANCH   6   7
ATOM      7  OG  SER A  88      67.075  23.330  83.906  1.00 37.76    -0.550 OA
ATOM      8  HG  SER A  88      67.037  24.164  84.360  1.00  0.00     0.310 HD
ENDBRANCH   6   7
ENDBRANCH   5   6
END_RES SER A  88
BEGIN_RES TYR A 143
REMARK  3 active torsions:
REMARK  status: ('A' for Active; 'I' for Inactive)
REMARK    5  A    between atoms: CA   and  CB  
REMARK    6  A    between atoms: CB   and  CG  
REMARK    7  A    between atoms: CZ   and  OH  
ROOT
ATOM      9  CA  TYR A 143      64.264  20.095  89.524  1.00 42.38     0.245 C 
ENDROOT
BRANCH   9  10
ATOM     10  CB  TYR A 143      62.885  20.126  88.852  1.00 47.73     0.022 C 
BRANCH  10  11
ATOM     11  CG  TYR A 143      62.754  19.291  87.601  1.00 52.08    -0.001 A 
ATOM     12  CD1 TYR A 143      63.762  18.412  87.211  1.00 55.58    -0.035 A 
ATOM     13  CE1 TYR A 143      63.630  17.624  86.065  1.00 58.22     0.100 A 
ATOM     14  CZ  TYR A 143      62.478  17.718  85.301  1.00 60.58    -0.121 A 
ATOM     15  CE2 TYR A 143      61.464  18.587  85.669  1.00 60.07     0.100 A 
ATOM     16  CD2 TYR A 143      61.609  19.367  86.816  1.00 56.72    -0.035 A 
BRANCH  14  17
ATOM     17  OH  TYR A 143      62.330  16.944  84.169  1.00 63.91    -0.368 OA
ATOM     18  HH  TYR A 143      62.998  16.950  83.494  1.00  0.00     0.339 HD
ENDBRANCH  14  17
ENDBRANCH  10  11
ENDBRANCH   9  10
END_RES TYR A 143
BEGIN_RES LYS A 145
REMARK  5 active torsions:
REMARK  status: ('A' for Active; 'I' for Inactive)
REMARK    8  A    between atoms: CA   and  CB  
REMARK    9  A    between atoms: CB   and  CG  
REMARK   10  A    between atoms: CG   and  CD  
REMARK   11  A    between atoms: CD   and  CE  
REMARK   12  A    between atoms: CE   and  NZ  
ROOT
ATOM     19  CA  LYS A 145      61.782  26.240  90.241  1.00 28.09     0.227 C 
ENDROOT
BRANCH  19  20
ATOM     20  CB  LYS A 145      60.456  25.589  89.829  1.00 28.44     0.039 C 
BRANCH  20  21
ATOM     21  CG  LYS A 145      60.266  25.398  88.334  1.00 31.62     0.053 C 
BRANCH  21  22
ATOM     22  CD  LYS A 145      60.461  23.946  87.910  1.00 34.02     0.048 C 
BRANCH  22  23
ATOM     23  CE  LYS A 145      60.996  23.880  86.486  1.00 33.58     0.218 C 
BRANCH  23  24
ATOM     24  NZ  LYS A 145      61.898  25.001  86.172  1.00 36.75    -0.272 N 
ATOM     25  HZ3 LYS A 145      62.712  25.001  86.786  1.00  0.00     0.311 HD
ATOM     26  HZ2 LYS A 145      62.367  24.856  85.278  1.00  0.00     0.311 HD
ATOM     27  HZ1 LYS A 145      61.420  25.902  86.194  1.00  0.00     0.311 HD
ENDBRANCH  23  24
ENDBRANCH  22  23
ENDBRANCH  21  22
ENDBRANCH  20  21
ENDBRANCH  19  20
END_RES LYS A 145
BEGIN_RES ALA A 279
REMARK  0 active torsions:
REMARK  status: ('A' for Active; 'I' for Inactive)
ROOT
ATOM     28  CA  ALA A 279      58.677  22.867  81.738  1.00 30.95     0.215 C 
ATOM     29  CB  ALA A 279      59.273  21.559  81.198  1.00 29.24     0.031 C 
ENDROOT
END_RES ALA A 279
ENDMDL
MODEL 2
REMARK VINA RESULT:    -5.543      1.804      5.193
REMARK INTER + INTRA:         -14.890
REMARK INTER:                  -8.104
REMARK INTRA:                  -6.785
REMARK UNBOUND:                -7.078
REMARK SMILES C=CCOC(=O)C1=CS[C@H]2[C@@H]([C@@H](C)OC(C)=O)C(=O)N12
REMARK SMILES IDX 9 1 19 2 20 3 11 4 10 5 18 6 7 7 8 8 12 9 13 10 14 11 15 12
REMARK SMILES IDX 17 13 16 14 5 15 6 16 4 17 3 18 2 19 1 20
REMARK H PARENT
REMARK Flexibility Score: inf
ROOT
ATOM      1  S   UNL     1      64.888  20.115  81.462  1.00  0.00    -0.105 SA
ATOM      2  O   UNL     1      62.097  23.186  83.239  1.00  0.00    -0.274 OA
ATOM      3  N   UNL     1      62.663  21.522  81.660  1.00  0.00    -0.291 N 
ATOM      4  C   UNL     1      63.076  20.846  83.584  1.00  0.00     0.153 C 
ATOM      5  C   UNL     1      63.197  20.246  82.173  1.00  0.00     0.169 C 
ATOM      6  C   UNL     1      62.475  22.091  82.888  1.00  0.00     0.238 C 
ATOM      7  C   UNL     1      63.414  22.062  80.652  1.00  0.00     0.137 C 
ATOM      8  C   UNL     1      64.574  21.450  80.387  1.00  0.00     0.077 C 
ENDROOT
BRANCH   4   9
ATOM      9  C   UNL     1      64.389  21.098  84.285  1.00  0.00     0.189 C 
ATOM     10  C   UNL     1      64.211  22.044  85.467  1.00  0.00     0.054 C 
BRANCH   9  11
ATOM     11  O   UNL     1      64.922  19.859  84.756  1.00  0.00    -0.462 OA
BRANCH  11  12
ATOM     12  C   UNL     1      66.283  19.790  84.823  1.00  0.00     0.302 C 
ATOM     13  O   UNL     1      67.075  20.523  84.246  1.00  0.00    -0.253 OA
ATOM     14  C   UNL     1      66.687  18.665  85.725  1.00  0.00     0.139 C 
ENDBRANCH  11  12
ENDBRANCH   9  11
ENDBRANCH   4   9
BRANCH   7  15
ATOM     15  C   UNL     1      63.000  23.281  79.972  1.00  0.00     0.355 C 
ATOM     16  O   UNL     1      61.836  23.553  79.701  1.00  0.00    -0.244 OA
BRANCH  15  17
ATOM     17  O   UNL     1      64.101  24.034  79.702  1.00  0.00    -0.457 OA
BRANCH  17  18
ATOM     18  C   UNL     1      64.218  24.503  78.356  1.00  0.00     0.260 C 
BRANCH  18  19
ATOM     19  C   UNL     1      65.364  25.456  78.277  1.00  0.00     0.006 C 
ATOM     20  C   UNL     1      66.094  25.835  79.332  1.00  0.00     0.007 C 
ENDBRANCH  18  19
ENDBRANCH  17  18
ENDBRANCH  15  17
ENDBRANCH   7  15
TORSDOF 7
BEGIN_RES SER A  90
REMARK  2 active torsions:
REMARK  status: ('A' for Active; 'I' for Inactive)
REMARK    1  A    between atoms: CA   and  CB  
REMARK    2  A    between atoms: CB   and  OG  
ROOT
ATOM      1  CA  SER A  90      64.797  27.426  83.208  1.00 28.94     0.292 C 
ENDROOT
BRANCH   1   2
ATOM      2  CB  SER A  90      64.021  26.161  83.621  1.00 29.63     0.194 C 
BRANCH   2   3
ATOM      3  OG  SER A  90      64.007  25.177  82.602  1.00 30.29    -0.550 OA
ATOM      4  HG  SER A  90      63.244  24.613  82.652  1.00  0.00     0.310 HD
ENDBRANCH   2   3
ENDBRANCH   1   2
END_RES SER A  90
BEGIN_RES SER A  88
REMARK  2 active torsions:
REMARK  status: ('A' for Active; 'I' for Inactive)
REMARK    3  A    between atoms: CA   and  CB  
REMARK    4  A    between atoms: CB   and  OG  
ROOT
ATOM      5  CA  SER A  88      69.162  24.022  82.855  1.00 38.41     0.292 C 
ENDROOT
BRANCH   5   6
ATOM      6  CB  SER A  88      67.754  23.445  82.669  1.00 37.99     0.194 C 
BRANCH   6   7
ATOM      7  OG  SER A  88      67.788  22.213  81.972  1.00 37.76    -0.550 OA
ATOM      8  HG  SER A  88      68.604  21.750  82.126  1.00  0.00     0.310 HD
ENDBRANCH   6   7
ENDBRANCH   5   6
END_RES SER A  88
BEGIN_RES TYR A 143
REMARK  3 active torsions:
REMARK  status: ('A' for Active; 'I' for Inactive)
REMARK    5  A    between atoms: CA   and  CB  
REMARK    6  A    between atoms: CB   and  CG  
REMARK    7  A    between atoms: CZ   and  OH  
ROOT
ATOM      9  CA  TYR A 143      64.264  20.095  89.524  1.00 42.38     0.245 C 
ENDROOT
BRANCH   9  10
ATOM     10  CB  TYR A 143      62.885  20.126  88.852  1.00 47.73     0.022 C 
BRANCH  10  11
ATOM     11  CG  TYR A 143      62.711  19.184  87.686  1.00 52.08    -0.001 A 
ATOM     12  CD1 TYR A 143      63.511  18.052  87.546  1.00 55.58    -0.035 A 
ATOM     13  CE1 TYR A 143      63.334  17.169  86.478  1.00 58.22     0.100 A 
ATOM     14  CZ  TYR A 143      62.346  17.422  85.539  1.00 60.58    -0.121 A 
ATOM     15  CE2 TYR A 143      61.540  18.543  85.658  1.00 60.07     0.100 A 
ATOM     16  CD2 TYR A 143      61.727  19.415  86.729  1.00 56.72    -0.035 A 
BRANCH  14  17
ATOM     17  OH  TYR A 143      62.155  16.558  84.482  1.00 63.91    -0.368 OA
ATOM     18  HH  TYR A 143      62.896  16.257  83.969  1.00  0.00     0.339 HD
ENDBRANCH  14  17
ENDBRANCH  10  11
ENDBRANCH   9  10
END_RES TYR A 143
BEGIN_RES LYS A 145
REMARK  5 active torsions:
REMARK  status: ('A' for Active; 'I' for Inactive)
REMARK    8  A    between atoms: CA   and  CB  
REMARK    9  A    between atoms: CB   and  CG  
REMARK   10  A    between atoms: CG   and  CD  
REMARK   11  A    between atoms: CD   and  CE  
REMARK   12  A    between atoms: CE   and  NZ  
ROOT
ATOM     19  CA  LYS A 145      61.782  26.240  90.241  1.00 28.09     0.227 C 
ENDROOT
BRANCH  19  20
ATOM     20  CB  LYS A 145      60.456  25.589  89.829  1.00 28.44     0.039 C 
BRANCH  20  21
ATOM     21  CG  LYS A 145      60.276  25.378  88.335  1.00 31.62     0.053 C 
BRANCH  21  22
ATOM     22  CD  LYS A 145      60.369  23.906  87.946  1.00 34.02     0.048 C 
BRANCH  22  23
ATOM     23  CE  LYS A 145      60.672  23.772  86.460  1.00 33.58     0.218 C 
BRANCH  23  24
ATOM     24  NZ  LYS A 145      61.544  24.850  85.965  1.00 36.75    -0.272 N 
ATOM     25  HZ3 LYS A 145      61.075  25.400  85.245  1.00  0.00     0.311 HD
ATOM     26  HZ2 LYS A 145      61.668  25.576  86.670  1.00  0.00     0.311 HD
ATOM     27  HZ1 LYS A 145      62.443  24.501  85.634  1.00  0.00     0.311 HD
ENDBRANCH  23  24
ENDBRANCH  22  23
ENDBRANCH  21  22
ENDBRANCH  20  21
ENDBRANCH  19  20
END_RES LYS A 145
BEGIN_RES ALA A 279
REMARK  0 active torsions:
REMARK  status: ('A' for Active; 'I' for Inactive)
ROOT
ATOM     28  CA  ALA A 279      58.677  22.867  81.738  1.00 30.95     0.215 C 
ATOM     29  CB  ALA A 279      59.273  21.559  81.198  1.00 29.24     0.031 C 
ENDROOT
END_RES ALA A 279
ENDMDL
MODEL 3
REMARK VINA RESULT:    -5.516      9.029     10.900
REMARK INTER + INTRA:         -14.852
REMARK INTER:                  -7.059
REMARK INTRA:                  -7.793
REMARK UNBOUND:                -7.078
REMARK SMILES C=CCOC(=O)C1=CS[C@H]2[C@@H]([C@@H](C)OC(C)=O)C(=O)N12
REMARK SMILES IDX 9 1 19 2 20 3 11 4 10 5 18 6 7 7 8 8 12 9 13 10 14 11 15 12
REMARK SMILES IDX 17 13 16 14 5 15 6 16 4 17 3 18 2 19 1 20
REMARK H PARENT
REMARK Flexibility Score: inf
ROOT
ATOM      1  S   UNL     1      73.421  29.987  79.535  1.00  0.00    -0.105 SA
ATOM      2  O   UNL     1      77.892  30.046  80.154  1.00  0.00    -0.274 OA
ATOM      3  N   UNL     1      75.671  30.488  80.823  1.00  0.00    -0.291 N 
ATOM      4  C   UNL     1      75.832  28.526  80.150  1.00  0.00     0.153 C 
ATOM      5  C   UNL     1      74.693  29.388  80.721  1.00  0.00     0.169 C 
ATOM      6  C   UNL     1      76.738  29.761  80.379  1.00  0.00     0.238 C 
ATOM      7  C   UNL     1      75.234  31.660  80.268  1.00  0.00     0.137 C 
ATOM      8  C   UNL     1      74.077  31.600  79.597  1.00  0.00     0.077 C 
ENDROOT
BRANCH   4   9
ATOM      9  C   UNL     1      75.670  28.133  78.700  1.00  0.00     0.189 C 
ATOM     10  C   UNL     1      77.021  27.883  78.042  1.00  0.00     0.054 C 
BRANCH   9  11
ATOM     11  O   UNL     1      74.883  26.944  78.616  1.00  0.00    -0.462 OA
BRANCH  11  12
ATOM     12  C   UNL     1      74.235  26.749  77.431  1.00  0.00     0.302 C 
ATOM     13  O   UNL     1      73.509  27.552  76.862  1.00  0.00    -0.253 OA
ATOM     14  C   UNL     1      74.546  25.381  76.906  1.00  0.00     0.139 C 
ENDBRANCH  11  12
ENDBRANCH   9  11
ENDBRANCH   4   9
BRANCH   7  15
ATOM     15  C   UNL     1      76.033  32.875  80.341  1.00  0.00     0.355 C 
ATOM     16  O   UNL     1      76.341  33.430  81.389  1.00  0.00    -0.244 OA
BRANCH  15  17
ATOM     17  O   UNL     1      76.362  33.265  79.080  1.00  0.00    -0.457 OA
BRANCH  17  18
ATOM     18  C   UNL     1      77.756  33.218  78.759  1.00  0.00     0.260 C 
BRANCH  18  19
ATOM     19  C   UNL     1      77.922  32.546  77.437  1.00  0.00     0.006 C 
ATOM     20  C   UNL     1      77.204  31.489  77.041  1.00  0.00     0.007 C 
ENDBRANCH  18  19
ENDBRANCH  17  18
ENDBRANCH  15  17
ENDBRANCH   7  15
TORSDOF 7
BEGIN_RES SER A  90
REMARK  2 active torsions:
REMARK  status: ('A' for Active; 'I' for Inactive)
REMARK    1  A    between atoms: CA   and  CB  
REMARK    2  A    between atoms: CB   and  OG  
ROOT
ATOM      1  CA  SER A  90      64.797  27.426  83.208  1.00 28.94     0.292 C 
ENDROOT
BRANCH   1   2
ATOM      2  CB  SER A  90      64.021  26.161  83.621  1.00 29.63     0.194 C 
BRANCH   2   3
ATOM      3  OG  SER A  90      64.075  25.146  82.634  1.00 30.29    -0.550 OA
ATOM      4  HG  SER A  90      64.127  25.498  81.753  1.00  0.00     0.310 HD
ENDBRANCH   2   3
ENDBRANCH   1   2
END_RES SER A  90
BEGIN_RES SER A  88
REMARK  2 active torsions:
REMARK  status: ('A' for Active; 'I' for Inactive)
REMARK    3  A    between atoms: CA   and  CB  
REMARK    4  A    between atoms: CB   and  OG  
ROOT
ATOM      5  CA  SER A  88      69.162  24.022  82.855  1.00 38.41     0.292 C 
ENDROOT
BRANCH   5   6
ATOM      6  CB  SER A  88      67.754  23.445  82.669  1.00 37.99     0.194 C 
BRANCH   6   7
ATOM      7  OG  SER A  88      66.820  24.073  83.528  1.00 37.76    -0.550 OA
ATOM      8  HG  SER A  88      66.006  23.585  83.572  1.00  0.00     0.310 HD
ENDBRANCH   6   7
ENDBRANCH   5   6
END_RES SER A  88
BEGIN_RES TYR A 143
REMARK  3 active torsions:
REMARK  status: ('A' for Active; 'I' for Inactive)
REMARK    5  A    between atoms: CA   and  CB  
REMARK    6  A    between atoms: CB   and  CG  
REMARK    7  A    between atoms: CZ   and  OH  
ROOT
ATOM      9  CA  TYR A 143      64.264  20.095  89.524  1.00 42.38     0.245 C 
ENDROOT
BRANCH   9  10
ATOM     10  CB  TYR A 143      62.885  20.126  88.852  1.00 47.73     0.022 C 
BRANCH  10  11
ATOM     11  CG  TYR A 143      62.849  19.643  87.422  1.00 52.08    -0.001 A 
ATOM     12  CD1 TYR A 143      62.028  18.585  87.038  1.00 55.58    -0.035 A 
ATOM     13  CE1 TYR A 143      61.979  18.154  85.709  1.00 58.22     0.100 A 
ATOM     14  CZ  TYR A 143      62.762  18.786  84.757  1.00 60.58    -0.121 A 
ATOM     15  CE2 TYR A 143      63.589  19.839  85.118  1.00 60.07     0.100 A 
ATOM     16  CD2 TYR A 143      63.626  20.260  86.447  1.00 56.72    -0.035 A 
BRANCH  14  17
ATOM     17  OH  TYR A 143      62.723  18.376  83.441  1.00 63.91    -0.368 OA
ATOM     18  HH  TYR A 143      63.230  18.835  82.781  1.00  0.00     0.339 HD
ENDBRANCH  14  17
ENDBRANCH  10  11
ENDBRANCH   9  10
END_RES TYR A 143
BEGIN_RES LYS A 145
REMARK  5 active torsions:
REMARK  status: ('A' for Active; 'I' for Inactive)
REMARK    8  A    between atoms: CA   and  CB  
REMARK    9  A    between atoms: CB   and  CG  
REMARK   10  A    between atoms: CG   and  CD  
REMARK   11  A    between atoms: CD   and  CE  
REMARK   12  A    between atoms: CE   and  NZ  
ROOT
ATOM     19  CA  LYS A 145      61.782  26.240  90.241  1.00 28.09     0.227 C 
ENDROOT
BRANCH  19  20
ATOM     20  CB  LYS A 145      60.456  25.589  89.829  1.00 28.44     0.039 C 
BRANCH  20  21
ATOM     21  CG  LYS A 145      60.286  25.356  88.337  1.00 31.62     0.053 C 
BRANCH  21  22
ATOM     22  CD  LYS A 145      59.915  23.911  88.020  1.00 34.02     0.048 C 
BRANCH  22  23
ATOM     23  CE  LYS A 145      61.113  23.176  87.433  1.00 33.58     0.218 C 
BRANCH  23  24
ATOM     24  NZ  LYS A 145      60.790  22.496  86.167  1.00 36.75    -0.272 N 
ATOM     25  HZ3 LYS A 145      60.892  23.128  85.374  1.00  0.00     0.311 HD
ATOM     26  HZ2 LYS A 145      61.506  21.813  85.924  1.00  0.00     0.311 HD
ATOM     27  HZ1 LYS A 145      59.864  22.069  86.181  1.00  0.00     0.311 HD
ENDBRANCH  23  24
ENDBRANCH  22  23
ENDBRANCH  21  22
ENDBRANCH  20  21
ENDBRANCH  19  20
END_RES LYS A 145
BEGIN_RES ALA A 279
REMARK  0 active torsions:
REMARK  status: ('A' for Active; 'I' for Inactive)
ROOT
ATOM     28  CA  ALA A 279      58.677  22.867  81.738  1.00 30.95     0.215 C 
ATOM     29  CB  ALA A 279      59.273  21.559  81.198  1.00 29.24     0.031 C 
ENDROOT
END_RES ALA A 279
ENDMDL
MODEL 4
REMARK VINA RESULT:    -5.168      3.194      4.653
REMARK INTER + INTRA:         -14.362
REMARK INTER:                  -7.153
REMARK INTRA:                  -7.209
REMARK UNBOUND:                -7.078
REMARK SMILES C=CCOC(=O)C1=CS[C@H]2[C@@H]([C@@H](C)OC(C)=O)C(=O)N12
REMARK SMILES IDX 9 1 19 2 20 3 11 4 10 5 18 6 7 7 8 8 12 9 13 10 14 11 15 12
REMARK SMILES IDX 17 13 16 14 5 15 6 16 4 17 3 18 2 19 1 20
REMARK H PARENT
REMARK Flexibility Score: inf
ROOT
ATOM      1  S   UNL     1      62.544  24.515  75.347  1.00  0.00    -0.105 SA
ATOM      2  O   UNL     1      62.130  23.677  79.763  1.00  0.00    -0.274 OA
ATOM      3  N   UNL     1      61.532  23.368  77.498  1.00  0.00    -0.291 N 
ATOM      4  C   UNL     1      63.598  23.241  77.711  1.00  0.00     0.153 C 
ATOM      5  C   UNL     1      62.617  23.111  76.532  1.00  0.00     0.169 C 
ATOM      6  C   UNL     1      62.342  23.436  78.596  1.00  0.00     0.238 C 
ATOM      7  C   UNL     1      60.668  24.351  77.099  1.00  0.00     0.137 C 
ATOM      8  C   UNL     1      61.008  25.023  75.993  1.00  0.00     0.077 C 
ENDROOT
BRANCH   4   9
ATOM      9  C   UNL     1      64.511  24.443  77.652  1.00  0.00     0.189 C 
ATOM     10  C   UNL     1      65.061  24.786  79.031  1.00  0.00     0.054 C 
BRANCH   9  11
ATOM     11  O   UNL     1      65.600  24.169  76.770  1.00  0.00    -0.462 OA
BRANCH  11  12
ATOM     12  C   UNL     1      66.227  25.264  76.250  1.00  0.00     0.302 C 
ATOM     13  O   UNL     1      65.685  26.261  75.796  1.00  0.00    -0.253 OA
ATOM     14  C   UNL     1      67.712  25.073  76.315  1.00  0.00     0.139 C 
ENDBRANCH  11  12
ENDBRANCH   9  11
ENDBRANCH   4   9
BRANCH   7  15
ATOM     15  C   UNL     1      59.492  24.690  77.889  1.00  0.00     0.355 C 
ATOM     16  O   UNL     1      59.149  25.837  78.148  1.00  0.00    -0.244 OA
BRANCH  15  17
ATOM     17  O   UNL     1      58.868  23.542  78.269  1.00  0.00    -0.457 OA
BRANCH  17  18
ATOM     18  C   UNL     1      57.547  23.353  77.754  1.00  0.00     0.260 C 
BRANCH  18  19
ATOM     19  C   UNL     1      57.032  22.034  78.225  1.00  0.00     0.006 C 
ATOM     20  C   UNL     1      56.166  21.281  77.537  1.00  0.00     0.007 C 
ENDBRANCH  18  19
ENDBRANCH  17  18
ENDBRANCH  15  17
ENDBRANCH   7  15
TORSDOF 7
BEGIN_RES SER A  90
REMARK  2 active torsions:
REMARK  status: ('A' for Active; 'I' for Inactive)
REMARK    1  A    between atoms: CA   and  CB  
REMARK    2  A    between atoms: CB   and  OG  
ROOT
ATOM      1  CA  SER A  90      64.797  27.426  83.208  1.00 28.94     0.292 C 
ENDROOT
BRANCH   1   2
ATOM      2  CB  SER A  90      64.021  26.161  83.621  1.00 29.63     0.194 C 
BRANCH   2   3
ATOM      3  OG  SER A  90      63.987  25.187  82.593  1.00 30.29    -0.550 OA
ATOM      4  HG  SER A  90      63.100  24.965  82.332  1.00  0.00     0.310 HD
ENDBRANCH   2   3
ENDBRANCH   1   2
END_RES SER A  90
BEGIN_RES SER A  88
REMARK  2 active torsions:
REMARK  status: ('A' for Active; 'I' for Inactive)
REMARK    3  A    between atoms: CA   and  CB  
REMARK    4  A    between atoms: CB   and  OG  
ROOT
ATOM      5  CA  SER A  88      69.162  24.022  82.855  1.00 38.41     0.292 C 
ENDROOT
BRANCH   5   6
ATOM      6  CB  SER A  88      67.754  23.445  82.669  1.00 37.99     0.194 C 
BRANCH   6   7
ATOM      7  OG  SER A  88      67.787  22.218  81.964  1.00 37.76    -0.550 OA
ATOM      8  HG  SER A  88      68.659  21.839  81.968  1.00  0.00     0.310 HD
ENDBRANCH   6   7
ENDBRANCH   5   6
END_RES SER A  88
BEGIN_RES TYR A 143
REMARK  3 active torsions:
REMARK  status: ('A' for Active; 'I' for Inactive)
REMARK    5  A    between atoms: CA   and  CB  
REMARK    6  A    between atoms: CB   and  CG  
REMARK    7  A    between atoms: CZ   and  OH  
ROOT
ATOM      9  CA  TYR A 143      64.264  20.095  89.524  1.00 42.38     0.245 C 
ENDROOT
BRANCH   9  10
ATOM     10  CB  TYR A 143      62.885  20.126  88.852  1.00 47.73     0.022 C 
BRANCH  10  11
ATOM     11  CG  TYR A 143      62.838  19.588  87.442  1.00 52.08    -0.001 A 
ATOM     12  CD1 TYR A 143      63.129  20.401  86.349  1.00 55.58    -0.035 A 
ATOM     13  CE1 TYR A 143      63.107  19.896  85.046  1.00 58.22     0.100 A 
ATOM     14  CZ  TYR A 143      62.789  18.564  84.836  1.00 60.58    -0.121 A 
ATOM     15  CE2 TYR A 143      62.494  17.738  85.909  1.00 60.07     0.100 A 
ATOM     16  CD2 TYR A 143      62.521  18.255  87.204  1.00 56.72    -0.035 A 
BRANCH  14  17
ATOM     17  OH  TYR A 143      62.767  18.048  83.558  1.00 63.91    -0.368 OA
ATOM     18  HH  TYR A 143      63.534  18.115  83.001  1.00  0.00     0.339 HD
ENDBRANCH  14  17
ENDBRANCH  10  11
ENDBRANCH   9  10
END_RES TYR A 143
BEGIN_RES LYS A 145
REMARK  5 active torsions:
REMARK  status: ('A' for Active; 'I' for Inactive)
REMARK    8  A    between atoms: CA   and  CB  
REMARK    9  A    between atoms: CB   and  CG  
REMARK   10  A    between atoms: CG   and  CD  
REMARK   11  A    between atoms: CD   and  CE  
REMARK   12  A    between atoms: CE   and  NZ  
ROOT
ATOM     19  CA  LYS A 145      61.782  26.240  90.241  1.00 28.09     0.227 C 
ENDROOT
BRANCH  19  20
ATOM     20  CB  LYS A 145      60.456  25.589  89.829  1.00 28.44     0.039 C 
BRANCH  20  21
ATOM     21  CG  LYS A 145      60.277  25.375  88.335  1.00 31.62     0.053 C 
BRANCH  21  22
ATOM     22  CD  LYS A 145      59.957  23.923  87.996  1.00 34.02     0.048 C 
BRANCH  22  23
ATOM     23  CE  LYS A 145      60.949  23.391  86.970  1.00 33.58     0.218 C 
BRANCH  23  24
ATOM     24  NZ  LYS A 145      60.710  23.935  85.623  1.00 36.75    -0.272 N 
ATOM     25  HZ3 LYS A 145      60.848  24.945  85.605  1.00  0.00     0.311 HD
ATOM     26  HZ2 LYS A 145      61.450  23.658  84.978  1.00  0.00     0.311 HD
ATOM     27  HZ1 LYS A 145      59.791  23.682  85.259  1.00  0.00     0.311 HD
ENDBRANCH  23  24
ENDBRANCH  22  23
ENDBRANCH  21  22
ENDBRANCH  20  21
ENDBRANCH  19  20
END_RES LYS A 145
BEGIN_RES ALA A 279
REMARK  0 active torsions:
REMARK  status: ('A' for Active; 'I' for Inactive)
ROOT
ATOM     28  CA  ALA A 279      58.677  22.867  81.738  1.00 30.95     0.215 C 
ATOM     29  CB  ALA A 279      59.273  21.559  81.198  1.00 29.24     0.031 C 
ENDROOT
END_RES ALA A 279
ENDMDL
MODEL 5
REMARK VINA RESULT:    -5.147      5.639      8.733
REMARK INTER + INTRA:         -14.332
REMARK INTER:                  -7.255
REMARK INTRA:                  -7.077
REMARK UNBOUND:                -7.078
REMARK SMILES C=CCOC(=O)C1=CS[C@H]2[C@@H]([C@@H](C)OC(C)=O)C(=O)N12
REMARK SMILES IDX 9 1 19 2 20 3 11 4 10 5 18 6 7 7 8 8 12 9 13 10 14 11 15 12
REMARK SMILES IDX 17 13 16 14 5 15 6 16 4 17 3 18 2 19 1 20
REMARK H PARENT
REMARK Flexibility Score: inf
ROOT
ATOM      1  S   UNL     1      58.556  25.059  74.455  1.00  0.00    -0.105 SA
ATOM      2  O   UNL     1      57.102  29.307  74.920  1.00  0.00    -0.274 OA
ATOM      3  N   UNL     1      57.483  27.339  73.670  1.00  0.00    -0.291 N 
ATOM      4  C   UNL     1      56.550  26.868  75.469  1.00  0.00     0.153 C 
ATOM      5  C   UNL     1      57.028  26.061  74.249  1.00  0.00     0.169 C 
ATOM      6  C   UNL     1      57.029  28.120  74.694  1.00  0.00     0.238 C 
ATOM      7  C   UNL     1      58.775  27.306  73.222  1.00  0.00     0.137 C 
ATOM      8  C   UNL     1      59.469  26.197  73.504  1.00  0.00     0.077 C 
ENDROOT
BRANCH   4   9
ATOM      9  C   UNL     1      57.307  26.599  76.748  1.00  0.00     0.189 C 
ATOM     10  C   UNL     1      56.890  27.566  77.849  1.00  0.00     0.054 C 
BRANCH   9  11
ATOM     11  O   UNL     1      57.051  25.262  77.179  1.00  0.00    -0.462 OA
BRANCH  11  12
ATOM     12  C   UNL     1      58.053  24.672  77.894  1.00  0.00     0.302 C 
ATOM     13  O   UNL     1      59.099  25.199  78.246  1.00  0.00    -0.253 OA
ATOM     14  C   UNL     1      57.684  23.252  78.201  1.00  0.00     0.139 C 
ENDBRANCH  11  12
ENDBRANCH   9  11
ENDBRANCH   4   9
BRANCH   7  15
ATOM     15  C   UNL     1      59.373  28.453  72.552  1.00  0.00     0.355 C 
ATOM     16  O   UNL     1      59.035  28.849  71.442  1.00  0.00    -0.244 OA
BRANCH  15  17
ATOM     17  O   UNL     1      60.336  28.982  73.352  1.00  0.00    -0.457 OA
BRANCH  17  18
ATOM     18  C   UNL     1      61.680  28.851  72.878  1.00  0.00     0.260 C 
BRANCH  18  19
ATOM     19  C   UNL     1      62.125  30.165  72.326  1.00  0.00     0.006 C 
ATOM     20  C   UNL     1      62.811  30.303  71.187  1.00  0.00     0.007 C 
ENDBRANCH  18  19
ENDBRANCH  17  18
ENDBRANCH  15  17
ENDBRANCH   7  15
TORSDOF 7
BEGIN_RES SER A  90
REMARK  2 active torsions:
REMARK  status: ('A' for Active; 'I' for Inactive)
REMARK    1  A    between atoms: CA   and  CB  
REMARK    2  A    between atoms: CB   and  OG  
ROOT
ATOM      1  CA  SER A  90      64.797  27.426  83.208  1.00 28.94     0.292 C 
ENDROOT
BRANCH   1   2
ATOM      2  CB  SER A  90      64.021  26.161  83.621  1.00 29.63     0.194 C 
BRANCH   2   3
ATOM      3  OG  SER A  90      64.051  25.157  82.622  1.00 30.29    -0.550 OA
ATOM      4  HG  SER A  90      63.876  25.502  81.754  1.00  0.00     0.310 HD
ENDBRANCH   2   3
ENDBRANCH   1   2
END_RES SER A  90
BEGIN_RES SER A  88
REMARK  2 active torsions:
REMARK  status: ('A' for Active; 'I' for Inactive)
REMARK    3  A    between atoms: CA   and  CB  
REMARK    4  A    between atoms: CB   and  OG  
ROOT
ATOM      5  CA  SER A  88      69.162  24.022  82.855  1.00 38.41     0.292 C 
ENDROOT
BRANCH   5   6
ATOM      6  CB  SER A  88      67.754  23.445  82.669  1.00 37.99     0.194 C 
BRANCH   6   7
ATOM      7  OG  SER A  88      66.818  24.082  83.519  1.00 37.76    -0.550 OA
ATOM      8  HG  SER A  88      67.227  24.769  84.032  1.00  0.00     0.310 HD
ENDBRANCH   6   7
ENDBRANCH   5   6
END_RES SER A  88
BEGIN_RES TYR A 143
REMARK  3 active torsions:
REMARK  status: ('A' for Active; 'I' for Inactive)
REMARK    5  A    between atoms: CA   and  CB  
REMARK    6  A    between atoms: CB   and  CG  
REMARK    7  A    between atoms: CZ   and  OH  
ROOT
ATOM      9  CA  TYR A 143      64.264  20.095  89.524  1.00 42.38     0.245 C 
ENDROOT
BRANCH   9  10
ATOM     10  CB  TYR A 143      62.885  20.126  88.852  1.00 47.73     0.022 C 
BRANCH  10  11
ATOM     11  CG  TYR A 143      62.861  19.709  87.401  1.00 52.08    -0.001 A 
ATOM     12  CD1 TYR A 143      62.134  18.597  86.982  1.00 55.58    -0.035 A 
ATOM     13  CE1 TYR A 143      62.094  18.225  85.635  1.00 58.22     0.100 A 
ATOM     14  CZ  TYR A 143      62.792  18.972  84.700  1.00 60.58    -0.121 A 
ATOM     15  CE2 TYR A 143      63.524  20.080  85.096  1.00 60.07     0.100 A 
ATOM     16  CD2 TYR A 143      63.553  20.441  86.442  1.00 56.72    -0.035 A 
BRANCH  14  17
ATOM     17  OH  TYR A 143      62.760  18.622  83.367  1.00 63.91    -0.368 OA
ATOM     18  HH  TYR A 143      62.936  17.726  83.103  1.00  0.00     0.339 HD
ENDBRANCH  14  17
ENDBRANCH  10  11
ENDBRANCH   9  10
END_RES TYR A 143
BEGIN_RES LYS A 145
REMARK  5 active torsions:
REMARK  status: ('A' for Active; 'I' for Inactive)
REMARK    8  A    between atoms: CA   and  CB  
REMARK    9  A    between atoms: CB   and  CG  
REMARK   10  A    between atoms: CG   and  CD  
REMARK   11  A    between atoms: CD   and  CE  
REMARK   12  A    between atoms: CE   and  NZ  
ROOT
ATOM     19  CA  LYS A 145      61.782  26.240  90.241  1.00 28.09     0.227 C 
ENDROOT
BRANCH  19  20
ATOM     20  CB  LYS A 145      60.456  25.589  89.829  1.00 28.44     0.039 C 
BRANCH  20  21
ATOM     21  CG  LYS A 145      60.269  25.392  88.334  1.00 31.62     0.053 C 
BRANCH  21  22
ATOM     22  CD  LYS A 145      60.223  23.917  87.950  1.00 34.02     0.048 C 
BRANCH  22  23
ATOM     23  CE  LYS A 145      61.213  23.633  86.828  1.00 33.58     0.218 C 
BRANCH  23  24
ATOM     24  NZ  LYS A 145      60.719  24.082  85.516  1.00 36.75    -0.272 N 
ATOM     25  HZ3 LYS A 145      60.465  23.289  84.927  1.00  0.00     0.311 HD
ATOM     26  HZ2 LYS A 145      59.803  24.523  85.599  1.00  0.00     0.311 HD
ATOM     27  HZ1 LYS A 145      61.381  24.695  85.040  1.00  0.00     0.311 HD
ENDBRANCH  23  24
ENDBRANCH  22  23
ENDBRANCH  21  22
ENDBRANCH  20  21
ENDBRANCH  19  20
END_RES LYS A 145
BEGIN_RES ALA A 279
REMARK  0 active torsions:
REMARK  status: ('A' for Active; 'I' for Inactive)
ROOT
ATOM     28  CA  ALA A 279      58.677  22.867  81.738  1.00 30.95     0.215 C 
ATOM     29  CB  ALA A 279      59.273  21.559  81.198  1.00 29.24     0.031 C 
ENDROOT
END_RES ALA A 279
ENDMDL
MODEL 6
REMARK VINA RESULT:    -5.016      2.308      3.691
REMARK INTER + INTRA:         -14.146
REMARK INTER:                  -6.693
REMARK INTRA:                  -7.453
REMARK UNBOUND:                -7.078
REMARK SMILES C=CCOC(=O)C1=CS[C@H]2[C@@H]([C@@H](C)OC(C)=O)C(=O)N12
REMARK SMILES IDX 9 1 19 2 20 3 11 4 10 5 18 6 7 7 8 8 12 9 13 10 14 11 15 12
REMARK SMILES IDX 17 13 16 14 5 15 6 16 4 17 3 18 2 19 1 20
REMARK H PARENT
REMARK Flexibility Score: inf
ROOT
ATOM      1  S   UNL     1      68.229  21.845  78.574  1.00  0.00    -0.105 SA
ATOM      2  O   UNL     1      65.586  25.412  79.386  1.00  0.00    -0.274 OA
ATOM      3  N   UNL     1      66.995  23.642  80.063  1.00  0.00    -0.291 N 
ATOM      4  C   UNL     1      67.888  24.709  78.516  1.00  0.00     0.153 C 
ATOM      5  C   UNL     1      68.293  23.499  79.375  1.00  0.00     0.169 C 
ATOM      6  C   UNL     1      66.602  24.755  79.376  1.00  0.00     0.238 C 
ATOM      7  C   UNL     1      66.285  22.474  80.137  1.00  0.00     0.137 C 
ATOM      8  C   UNL     1      66.788  21.434  79.462  1.00  0.00     0.077 C 
ENDROOT
BRANCH   4   9
ATOM      9  C   UNL     1      67.651  24.404  77.056  1.00  0.00     0.189 C 
ATOM     10  C   UNL     1      66.656  25.383  76.443  1.00  0.00     0.054 C 
BRANCH   9  11
ATOM     11  O   UNL     1      68.887  24.490  76.346  1.00  0.00    -0.462 OA
BRANCH  11  12
ATOM     12  C   UNL     1      68.843  24.102  75.038  1.00  0.00     0.302 C 
ATOM     13  O   UNL     1      69.100  24.799  74.067  1.00  0.00    -0.253 OA
ATOM     14  C   UNL     1      68.427  22.665  74.952  1.00  0.00     0.139 C 
ENDBRANCH  11  12
ENDBRANCH   9  11
ENDBRANCH   4   9
BRANCH   7  15
ATOM     15  C   UNL     1      65.015  22.406  80.847  1.00  0.00     0.355 C 
ATOM     16  O   UNL     1      64.909  22.461  82.066  1.00  0.00    -0.244 OA
BRANCH  15  17
ATOM     17  O   UNL     1      64.009  22.275  79.942  1.00  0.00    -0.457 OA
BRANCH  17  18
ATOM     18  C   UNL     1      62.885  23.140  80.134  1.00  0.00     0.260 C 
BRANCH  18  19
ATOM     19  C   UNL     1      62.244  23.396  78.810  1.00  0.00     0.006 C 
ATOM     20  C   UNL     1      62.699  24.283  77.919  1.00  0.00     0.007 C 
ENDBRANCH  18  19
ENDBRANCH  17  18
ENDBRANCH  15  17
ENDBRANCH   7  15
TORSDOF 7
BEGIN_RES SER A  90
REMARK  2 active torsions:
REMARK  status: ('A' for Active; 'I' for Inactive)
REMARK    1  A    between atoms: CA   and  CB  
REMARK    2  A    between atoms: CB   and  OG  
ROOT
ATOM      1  CA  SER A  90      64.797  27.426  83.208  1.00 28.94     0.292 C 
ENDROOT
BRANCH   1   2
ATOM      2  CB  SER A  90      64.021  26.161  83.621  1.00 29.63     0.194 C 
BRANCH   2   3
ATOM      3  OG  SER A  90      64.050  25.157  82.622  1.00 30.29    -0.550 OA
ATOM      4  HG  SER A  90      64.722  25.314  81.968  1.00  0.00     0.310 HD
ENDBRANCH   2   3
ENDBRANCH   1   2
END_RES SER A  90
BEGIN_RES SER A  88
REMARK  2 active torsions:
REMARK  status: ('A' for Active; 'I' for Inactive)
REMARK    3  A    between atoms: CA   and  CB  
REMARK    4  A    between atoms: CB   and  OG  
ROOT
ATOM      5  CA  SER A  88      69.162  24.022  82.855  1.00 38.41     0.292 C 
ENDROOT
BRANCH   5   6
ATOM      6  CB  SER A  88      67.754  23.445  82.669  1.00 37.99     0.194 C 
BRANCH   6   7
ATOM      7  OG  SER A  88      66.817  24.086  83.515  1.00 37.76    -0.550 OA
ATOM      8  HG  SER A  88      67.009  25.012  83.607  1.00  0.00     0.310 HD
ENDBRANCH   6   7
ENDBRANCH   5   6
END_RES SER A  88
BEGIN_RES TYR A 143
REMARK  3 active torsions:
REMARK  status: ('A' for Active; 'I' for Inactive)
REMARK    5  A    between atoms: CA   and  CB  
REMARK    6  A    between atoms: CB   and  CG  
REMARK    7  A    between atoms: CZ   and  OH  
ROOT
ATOM      9  CA  TYR A 143      64.264  20.095  89.524  1.00 42.38     0.245 C 
ENDROOT
BRANCH   9  10
ATOM     10  CB  TYR A 143      62.885  20.126  88.852  1.00 47.73     0.022 C 
BRANCH  10  11
ATOM     11  CG  TYR A 143      62.897  20.315  87.354  1.00 52.08    -0.001 A 
ATOM     12  CD1 TYR A 143      61.785  20.000  86.578  1.00 55.58    -0.035 A 
ATOM     13  CE1 TYR A 143      61.790  20.196  85.194  1.00 58.22     0.100 A 
ATOM     14  CZ  TYR A 143      62.921  20.711  84.582  1.00 60.58    -0.121 A 
ATOM     15  CE2 TYR A 143      64.040  21.028  85.335  1.00 60.07     0.100 A 
ATOM     16  CD2 TYR A 143      64.021  20.829  86.715  1.00 56.72    -0.035 A 
BRANCH  14  17
ATOM     17  OH  TYR A 143      62.942  20.915  83.218  1.00 63.91    -0.368 OA
ATOM     18  HH  TYR A 143      63.392  21.667  82.853  1.00  0.00     0.339 HD
ENDBRANCH  14  17
ENDBRANCH  10  11
ENDBRANCH   9  10
END_RES TYR A 143
BEGIN_RES LYS A 145
REMARK  5 active torsions:
REMARK  status: ('A' for Active; 'I' for Inactive)
REMARK    8  A    between atoms: CA   and  CB  
REMARK    9  A    between atoms: CB   and  CG  
REMARK   10  A    between atoms: CG   and  CD  
REMARK   11  A    between atoms: CD   and  CE  
REMARK   12  A    between atoms: CE   and  NZ  
ROOT
ATOM     19  CA  LYS A 145      61.782  26.240  90.241  1.00 28.09     0.227 C 
ENDROOT
BRANCH  19  20
ATOM     20  CB  LYS A 145      60.456  25.589  89.829  1.00 28.44     0.039 C 
BRANCH  20  21
ATOM     21  CG  LYS A 145      60.275  25.379  88.335  1.00 31.62     0.053 C 
BRANCH  21  22
ATOM     22  CD  LYS A 145      60.503  23.927  87.927  1.00 34.02     0.048 C 
BRANCH  22  23
ATOM     23  CE  LYS A 145      61.242  23.863  86.597  1.00 33.58     0.218 C 
BRANCH  23  24
ATOM     24  NZ  LYS A 145      61.879  25.144  86.246  1.00 36.75    -0.272 N 
ATOM     25  HZ3 LYS A 145      61.180  25.869  86.083  1.00  0.00     0.311 HD
ATOM     26  HZ2 LYS A 145      62.352  25.552  87.052  1.00  0.00     0.311 HD
ATOM     27  HZ1 LYS A 145      62.512  25.058  85.452  1.00  0.00     0.311 HD
ENDBRANCH  23  24
ENDBRANCH  22  23
ENDBRANCH  21  22
ENDBRANCH  20  21
ENDBRANCH  19  20
END_RES LYS A 145
BEGIN_RES ALA A 279
REMARK  0 active torsions:
REMARK  status: ('A' for Active; 'I' for Inactive)
ROOT
ATOM     28  CA  ALA A 279      58.677  22.867  81.738  1.00 30.95     0.215 C 
ATOM     29  CB  ALA A 279      59.273  21.559  81.198  1.00 29.24     0.031 C 
ENDROOT
END_RES ALA A 279
ENDMDL
MODEL 7
REMARK VINA RESULT:    -4.990      1.945      5.486
REMARK INTER + INTRA:         -14.110
REMARK INTER:                  -7.292
REMARK INTRA:                  -6.818
REMARK UNBOUND:                -7.078
REMARK SMILES C=CCOC(=O)C1=CS[C@H]2[C@@H]([C@@H](C)OC(C)=O)C(=O)N12
REMARK SMILES IDX 9 1 19 2 20 3 11 4 10 5 18 6 7 7 8 8 12 9 13 10 14 11 15 12
REMARK SMILES IDX 17 13 16 14 5 15 6 16 4 17 3 18 2 19 1 20
REMARK H PARENT
REMARK Flexibility Score: inf
ROOT
ATOM      1  S   UNL     1      65.394  19.741  80.446  1.00  0.00    -0.105 SA
ATOM      2  O   UNL     1      64.394  22.626  83.770  1.00  0.00    -0.274 OA
ATOM      3  N   UNL     1      64.207  21.820  81.558  1.00  0.00    -0.291 N 
ATOM      4  C   UNL     1      63.978  20.253  82.906  1.00  0.00     0.153 C 
ATOM      5  C   UNL     1      63.941  20.381  81.374  1.00  0.00     0.169 C 
ATOM      6  C   UNL     1      64.193  21.786  82.923  1.00  0.00     0.238 C 
ATOM      7  C   UNL     1      65.244  22.285  80.795  1.00  0.00     0.137 C 
ATOM      8  C   UNL     1      65.945  21.362  80.126  1.00  0.00     0.077 C 
ENDROOT
BRANCH   4   9
ATOM      9  C   UNL     1      65.138  19.455  83.453  1.00  0.00     0.189 C 
ATOM     10  C   UNL     1      65.380  19.771  84.924  1.00  0.00     0.054 C 
BRANCH   9  11
ATOM     11  O   UNL     1      64.862  18.061  83.315  1.00  0.00    -0.462 OA
BRANCH  11  12
ATOM     12  C   UNL     1      65.951  17.239  83.345  1.00  0.00     0.302 C 
ATOM     13  O   UNL     1      67.029  17.444  82.804  1.00  0.00    -0.253 OA
ATOM     14  C   UNL     1      65.640  16.018  84.156  1.00  0.00     0.139 C 
ENDBRANCH  11  12
ENDBRANCH   9  11
ENDBRANCH   4   9
BRANCH   7  15
ATOM     15  C   UNL     1      65.603  23.697  80.788  1.00  0.00     0.355 C 
ATOM     16  O   UNL     1      66.377  24.210  81.586  1.00  0.00    -0.244 OA
BRANCH  15  17
ATOM     17  O   UNL     1      64.946  24.316  79.771  1.00  0.00    -0.457 OA
BRANCH  17  18
ATOM     18  C   UNL     1      65.733  25.204  78.972  1.00  0.00     0.260 C 
BRANCH  18  19
ATOM     19  C   UNL     1      65.050  25.404  77.660  1.00  0.00     0.006 C 
ATOM     20  C   UNL     1      65.682  25.757  76.535  1.00  0.00     0.007 C 
ENDBRANCH  18  19
ENDBRANCH  17  18
ENDBRANCH  15  17
ENDBRANCH   7  15
TORSDOF 7
BEGIN_RES SER A  90
REMARK  2 active torsions:
REMARK  status: ('A' for Active; 'I' for Inactive)
REMARK    1  A    between atoms: CA   and  CB  
REMARK    2  A    between atoms: CB   and  OG  
ROOT
ATOM      1  CA  SER A  90      64.797  27.426  83.208  1.00 28.94     0.292 C 
ENDROOT
BRANCH   1   2
ATOM      2  CB  SER A  90      64.021  26.161  83.621  1.00 29.63     0.194 C 
BRANCH   2   3
ATOM      3  OG  SER A  90      63.751  25.308  82.522  1.00 30.29    -0.550 OA
ATOM      4  HG  SER A  90      63.935  24.396  82.717  1.00  0.00     0.310 HD
ENDBRANCH   2   3
ENDBRANCH   1   2
END_RES SER A  90
BEGIN_RES SER A  88
REMARK  2 active torsions:
REMARK  status: ('A' for Active; 'I' for Inactive)
REMARK    3  A    between atoms: CA   and  CB  
REMARK    4  A    between atoms: CB   and  OG  
ROOT
ATOM      5  CA  SER A  88      69.162  24.022  82.855  1.00 38.41     0.292 C 
ENDROOT
BRANCH   5   6
ATOM      6  CB  SER A  88      67.754  23.445  82.669  1.00 37.99     0.194 C 
BRANCH   6   7
ATOM      7  OG  SER A  88      67.391  22.608  83.752  1.00 37.76    -0.550 OA
ATOM      8  HG  SER A  88      67.762  22.919  84.570  1.00  0.00     0.310 HD
ENDBRANCH   6   7
ENDBRANCH   5   6
END_RES SER A  88
BEGIN_RES TYR A 143
REMARK  3 active torsions:
REMARK  status: ('A' for Active; 'I' for Inactive)
REMARK    5  A    between atoms: CA   and  CB  
REMARK    6  A    between atoms: CB   and  CG  
REMARK    7  A    between atoms: CZ   and  OH  
ROOT
ATOM      9  CA  TYR A 143      64.264  20.095  89.524  1.00 42.38     0.245 C 
ENDROOT
BRANCH   9  10
ATOM     10  CB  TYR A 143      62.885  20.126  88.852  1.00 47.73     0.022 C 
BRANCH  10  11
ATOM     11  CG  TYR A 143      62.720  19.206  87.666  1.00 52.08    -0.001 A 
ATOM     12  CD1 TYR A 143      63.292  17.936  87.653  1.00 55.58    -0.035 A 
ATOM     13  CE1 TYR A 143      63.120  17.077  86.564  1.00 58.22     0.100 A 
ATOM     14  CZ  TYR A 143      62.370  17.495  85.477  1.00 60.58    -0.121 A 
ATOM     15  CE2 TYR A 143      61.795  18.756  85.468  1.00 60.07     0.100 A 
ATOM     16  CD2 TYR A 143      61.974  19.602  86.562  1.00 56.72    -0.035 A 
BRANCH  14  17
ATOM     17  OH  TYR A 143      62.187  16.659  84.396  1.00 63.91    -0.368 OA
ATOM     18  HH  TYR A 143      61.830  15.787  84.520  1.00  0.00     0.339 HD
ENDBRANCH  14  17
ENDBRANCH  10  11
ENDBRANCH   9  10
END_RES TYR A 143
BEGIN_RES LYS A 145
REMARK  5 active torsions:
REMARK  status: ('A' for Active; 'I' for Inactive)
REMARK    8  A    between atoms: CA   and  CB  
REMARK    9  A    between atoms: CB   and  CG  
REMARK   10  A    between atoms: CG   and  CD  
REMARK   11  A    between atoms: CD   and  CE  
REMARK   12  A    between atoms: CE   and  NZ  
ROOT
ATOM     19  CA  LYS A 145      61.782  26.240  90.241  1.00 28.09     0.227 C 
ENDROOT
BRANCH  19  20
ATOM     20  CB  LYS A 145      60.456  25.589  89.829  1.00 28.44     0.039 C 
BRANCH  20  21
ATOM     21  CG  LYS A 145      60.274  25.383  88.335  1.00 31.62     0.053 C 
BRANCH  21  22
ATOM     22  CD  LYS A 145      60.032  23.919  87.981  1.00 34.02     0.048 C 
BRANCH  22  23
ATOM     23  CE  LYS A 145      61.068  23.443  86.971  1.00 33.58     0.218 C 
BRANCH  23  24
ATOM     24  NZ  LYS A 145      60.767  23.895  85.603  1.00 36.75    -0.272 N 
ATOM     25  HZ3 LYS A 145      60.355  23.143  85.050  1.00  0.00     0.311 HD
ATOM     26  HZ2 LYS A 145      59.984  24.549  85.595  1.00  0.00     0.311 HD
ATOM     27  HZ1 LYS A 145      61.582  24.291  85.136  1.00  0.00     0.311 HD
ENDBRANCH  23  24
ENDBRANCH  22  23
ENDBRANCH  21  22
ENDBRANCH  20  21
ENDBRANCH  19  20
END_RES LYS A 145
BEGIN_RES ALA A 279
REMARK  0 active torsions:
REMARK  status: ('A' for Active; 'I' for Inactive)
ROOT
ATOM     28  CA  ALA A 279      58.677  22.867  81.738  1.00 30.95     0.215 C 
ATOM     29  CB  ALA A 279      59.273  21.559  81.198  1.00 29.24     0.031 C 
ENDROOT
END_RES ALA A 279
ENDMDL
MODEL 8
REMARK VINA RESULT:    -4.931      1.884      2.402
REMARK INTER + INTRA:         -14.027
REMARK INTER:                  -7.049
REMARK INTRA:                  -6.978
REMARK UNBOUND:                -7.078
REMARK SMILES C=CCOC(=O)C1=CS[C@H]2[C@@H]([C@@H](C)OC(C)=O)C(=O)N12
REMARK SMILES IDX 9 1 19 2 20 3 11 4 10 5 18 6 7 7 8 8 12 9 13 10 14 11 15 12
REMARK SMILES IDX 17 13 16 14 5 15 6 16 4 17 3 18 2 19 1 20
REMARK H PARENT
REMARK Flexibility Score: inf
ROOT
ATOM      1  S   UNL     1      65.299  23.100  77.619  1.00  0.00    -0.105 SA
ATOM      2  O   UNL     1      68.193  23.076  81.083  1.00  0.00    -0.274 OA
ATOM      3  N   UNL     1      66.283  22.295  79.932  1.00  0.00    -0.291 N 
ATOM      4  C   UNL     1      67.905  22.392  78.633  1.00  0.00     0.153 C 
ATOM      5  C   UNL     1      66.435  21.957  78.504  1.00  0.00     0.169 C 
ATOM      6  C   UNL     1      67.590  22.639  80.128  1.00  0.00     0.238 C 
ATOM      7  C   UNL     1      65.211  23.105  80.190  1.00  0.00     0.137 C 
ATOM      8  C   UNL     1      64.563  23.584  79.122  1.00  0.00     0.077 C 
ENDROOT
BRANCH   4   9
ATOM      9  C   UNL     1      68.272  23.637  77.860  1.00  0.00     0.189 C 
ATOM     10  C   UNL     1      69.535  24.282  78.419  1.00  0.00     0.054 C 
BRANCH   9  11
ATOM     11  O   UNL     1      68.490  23.298  76.490  1.00  0.00    -0.462 OA
BRANCH  11  12
ATOM     12  C   UNL     1      68.353  24.324  75.600  1.00  0.00     0.302 C 
ATOM     13  O   UNL     1      67.619  25.295  75.721  1.00  0.00    -0.253 OA
ATOM     14  C   UNL     1      69.252  24.094  74.423  1.00  0.00     0.139 C 
ENDBRANCH  11  12
ENDBRANCH   9  11
ENDBRANCH   4   9
BRANCH   7  15
ATOM     15  C   UNL     1      64.859  23.482  81.552  1.00  0.00     0.355 C 
ATOM     16  O   UNL     1      64.797  24.639  81.948  1.00  0.00    -0.244 OA
BRANCH  15  17
ATOM     17  O   UNL     1      64.620  22.355  82.275  1.00  0.00    -0.457 OA
BRANCH  17  18
ATOM     18  C   UNL     1      63.248  21.960  82.375  1.00  0.00     0.260 C 
BRANCH  18  19
ATOM     19  C   UNL     1      62.813  22.092  83.797  1.00  0.00     0.006 C 
ATOM     20  C   UNL     1      63.655  22.163  84.833  1.00  0.00     0.007 C 
ENDBRANCH  18  19
ENDBRANCH  17  18
ENDBRANCH  15  17
ENDBRANCH   7  15
TORSDOF 7
BEGIN_RES SER A  90
REMARK  2 active torsions:
REMARK  status: ('A' for Active; 'I' for Inactive)
REMARK    1  A    between atoms: CA   and  CB  
REMARK    2  A    between atoms: CB   and  OG  
ROOT
ATOM      1  CA  SER A  90      64.797  27.426  83.208  1.00 28.94     0.292 C 
ENDROOT
BRANCH   1   2
ATOM      2  CB  SER A  90      64.021  26.161  83.621  1.00 29.63     0.194 C 
BRANCH   2   3
ATOM      3  OG  SER A  90      64.702  25.405  84.607  1.00 30.29    -0.550 OA
ATOM      4  HG  SER A  90      65.518  25.038  84.285  1.00  0.00     0.310 HD
ENDBRANCH   2   3
ENDBRANCH   1   2
END_RES SER A  90
BEGIN_RES SER A  88
REMARK  2 active torsions:
REMARK  status: ('A' for Active; 'I' for Inactive)
REMARK    3  A    between atoms: CA   and  CB  
REMARK    4  A    between atoms: CB   and  OG  
ROOT
ATOM      5  CA  SER A  88      69.162  24.022  82.855  1.00 38.41     0.292 C 
ENDROOT
BRANCH   5   6
ATOM      6  CB  SER A  88      67.754  23.445  82.669  1.00 37.99     0.194 C 
BRANCH   6   7
ATOM      7  OG  SER A  88      67.028  23.451  83.885  1.00 37.76    -0.550 OA
ATOM      8  HG  SER A  88      67.333  24.137  84.467  1.00  0.00     0.310 HD
ENDBRANCH   6   7
ENDBRANCH   5   6
END_RES SER A  88
BEGIN_RES TYR A 143
REMARK  3 active torsions:
REMARK  status: ('A' for Active; 'I' for Inactive)
REMARK    5  A    between atoms: CA   and  CB  
REMARK    6  A    between atoms: CB   and  CG  
REMARK    7  A    between atoms: CZ   and  OH  
ROOT
ATOM      9  CA  TYR A 143      64.264  20.095  89.524  1.00 42.38     0.245 C 
ENDROOT
BRANCH   9  10
ATOM     10  CB  TYR A 143      62.885  20.126  88.852  1.00 47.73     0.022 C 
BRANCH  10  11
ATOM     11  CG  TYR A 143      62.824  19.524  87.469  1.00 52.08    -0.001 A 
ATOM     12  CD1 TYR A 143      61.609  19.359  86.806  1.00 55.58    -0.035 A 
ATOM     13  CE1 TYR A 143      61.556  18.822  85.517  1.00 58.22     0.100 A 
ATOM     14  CZ  TYR A 143      62.731  18.444  84.887  1.00 60.58    -0.121 A 
ATOM     15  CE2 TYR A 143      63.949  18.596  85.529  1.00 60.07     0.100 A 
ATOM     16  CD2 TYR A 143      63.988  19.135  86.814  1.00 56.72    -0.035 A 
BRANCH  14  17
ATOM     17  OH  TYR A 143      62.696  17.916  83.614  1.00 63.91    -0.368 OA
ATOM     18  HH  TYR A 143      62.875  18.468  82.861  1.00  0.00     0.339 HD
ENDBRANCH  14  17
ENDBRANCH  10  11
ENDBRANCH   9  10
END_RES TYR A 143
BEGIN_RES LYS A 145
REMARK  5 active torsions:
REMARK  status: ('A' for Active; 'I' for Inactive)
REMARK    8  A    between atoms: CA   and  CB  
REMARK    9  A    between atoms: CB   and  CG  
REMARK   10  A    between atoms: CG   and  CD  
REMARK   11  A    between atoms: CD   and  CE  
REMARK   12  A    between atoms: CE   and  NZ  
ROOT
ATOM     19  CA  LYS A 145      61.782  26.240  90.241  1.00 28.09     0.227 C 
ENDROOT
BRANCH  19  20
ATOM     20  CB  LYS A 145      60.456  25.589  89.829  1.00 28.44     0.039 C 
BRANCH  20  21
ATOM     21  CG  LYS A 145      60.223  25.488  88.331  1.00 31.62     0.053 C 
BRANCH  21  22
ATOM     22  CD  LYS A 145      60.362  24.057  87.822  1.00 34.02     0.048 C 
BRANCH  22  23
ATOM     23  CE  LYS A 145      61.004  24.048  86.441  1.00 33.58     0.218 C 
BRANCH  23  24
ATOM     24  NZ  LYS A 145      61.912  25.189  86.236  1.00 36.75    -0.272 N 
ATOM     25  HZ3 LYS A 145      62.052  25.707  87.103  1.00  0.00     0.311 HD
ATOM     26  HZ2 LYS A 145      62.869  24.873  86.079  1.00  0.00     0.311 HD
ATOM     27  HZ1 LYS A 145      61.600  25.804  85.486  1.00  0.00     0.311 HD
ENDBRANCH  23  24
ENDBRANCH  22  23
ENDBRANCH  21  22
ENDBRANCH  20  21
ENDBRANCH  19  20
END_RES LYS A 145
BEGIN_RES ALA A 279
REMARK  0 active torsions:
REMARK  status: ('A' for Active; 'I' for Inactive)
ROOT
ATOM     28  CA  ALA A 279      58.677  22.867  81.738  1.00 30.95     0.215 C 
ATOM     29  CB  ALA A 279      59.273  21.559  81.198  1.00 29.24     0.031 C 
ENDROOT
END_RES ALA A 279
ENDMDL
MODEL 9
REMARK VINA RESULT:    -4.925      1.972      2.794
REMARK INTER + INTRA:         -14.018
REMARK INTER:                  -6.786
REMARK INTRA:                  -7.232
REMARK UNBOUND:                -7.078
REMARK SMILES C=CCOC(=O)C1=CS[C@H]2[C@@H]([C@@H](C)OC(C)=O)C(=O)N12
REMARK SMILES IDX 9 1 19 2 20 3 11 4 10 5 18 6 7 7 8 8 12 9 13 10 14 11 15 12
REMARK SMILES IDX 17 13 16 14 5 15 6 16 4 17 3 18 2 19 1 20
REMARK H PARENT
REMARK Flexibility Score: inf
ROOT
ATOM      1  S   UNL     1      63.528  20.646  81.779  1.00  0.00    -0.105 SA
ATOM      2  O   UNL     1      67.862  21.887  82.014  1.00  0.00    -0.274 OA
ATOM      3  N   UNL     1      66.119  20.298  82.148  1.00  0.00    -0.291 N 
ATOM      4  C   UNL     1      65.943  21.399  80.391  1.00  0.00     0.153 C 
ATOM      5  C   UNL     1      65.159  20.240  81.030  1.00  0.00     0.169 C 
ATOM      6  C   UNL     1      66.893  21.286  81.608  1.00  0.00     0.238 C 
ATOM      7  C   UNL     1      65.522  20.354  83.378  1.00  0.00     0.137 C 
ATOM      8  C   UNL     1      64.192  20.496  83.383  1.00  0.00     0.077 C 
ENDROOT
BRANCH   4   9
ATOM      9  C   UNL     1      65.193  22.707  80.306  1.00  0.00     0.189 C 
ATOM     10  C   UNL     1      66.145  23.874  80.073  1.00  0.00     0.054 C 
BRANCH   9  11
ATOM     11  O   UNL     1      64.256  22.648  79.230  1.00  0.00    -0.462 OA
BRANCH  11  12
ATOM     12  C   UNL     1      63.203  23.511  79.318  1.00  0.00     0.302 C 
ATOM     13  O   UNL     1      62.484  23.680  80.293  1.00  0.00    -0.253 OA
ATOM     14  C   UNL     1      63.044  24.246  78.022  1.00  0.00     0.139 C 
ENDBRANCH  11  12
ENDBRANCH   9  11
ENDBRANCH   4   9
BRANCH   7  15
ATOM     15  C   UNL     1      66.311  20.341  84.602  1.00  0.00     0.355 C 
ATOM     16  O   UNL     1      66.817  19.332  85.080  1.00  0.00    -0.244 OA
BRANCH  15  17
ATOM     17  O   UNL     1      66.380  21.605  85.099  1.00  0.00    -0.457 OA
BRANCH  17  18
ATOM     18  C   UNL     1      65.978  21.760  86.463  1.00  0.00     0.260 C 
BRANCH  18  19
ATOM     19  C   UNL     1      64.613  22.362  86.497  1.00  0.00     0.006 C 
ATOM     20  C   UNL     1      64.243  23.416  85.763  1.00  0.00     0.007 C 
ENDBRANCH  18  19
ENDBRANCH  17  18
ENDBRANCH  15  17
ENDBRANCH   7  15
TORSDOF 7
BEGIN_RES SER A  90
REMARK  2 active torsions:
REMARK  status: ('A' for Active; 'I' for Inactive)
REMARK    1  A    between atoms: CA   and  CB  
REMARK    2  A    between atoms: CB   and  OG  
ROOT
ATOM      1  CA  SER A  90      64.797  27.426  83.208  1.00 28.94     0.292 C 
ENDROOT
BRANCH   1   2
ATOM      2  CB  SER A  90      64.021  26.161  83.621  1.00 29.63     0.194 C 
BRANCH   2   3
ATOM      3  OG  SER A  90      64.012  25.174  82.604  1.00 30.29    -0.550 OA
ATOM      4  HG  SER A  90      64.515  24.404  82.841  1.00  0.00     0.310 HD
ENDBRANCH   2   3
ENDBRANCH   1   2
END_RES SER A  90
BEGIN_RES SER A  88
REMARK  2 active torsions:
REMARK  status: ('A' for Active; 'I' for Inactive)
REMARK    3  A    between atoms: CA   and  CB  
REMARK    4  A    between atoms: CB   and  OG  
ROOT
ATOM      5  CA  SER A  88      69.162  24.022  82.855  1.00 38.41     0.292 C 
ENDROOT
BRANCH   5   6
ATOM      6  CB  SER A  88      67.754  23.445  82.669  1.00 37.99     0.194 C 
BRANCH   6   7
ATOM      7  OG  SER A  88      66.821  24.072  83.529  1.00 37.76    -0.550 OA
ATOM      8  HG  SER A  88      66.977  23.841  84.438  1.00  0.00     0.310 HD
ENDBRANCH   6   7
ENDBRANCH   5   6
END_RES SER A  88
BEGIN_RES TYR A 143
REMARK  3 active torsions:
REMARK  status: ('A' for Active; 'I' for Inactive)
REMARK    5  A    between atoms: CA   and  CB  
REMARK    6  A    between atoms: CB   and  CG  
REMARK    7  A    between atoms: CZ   and  OH  
ROOT
ATOM      9  CA  TYR A 143      64.264  20.095  89.524  1.00 42.38     0.245 C 
ENDROOT
BRANCH   9  10
ATOM     10  CB  TYR A 143      62.885  20.126  88.852  1.00 47.73     0.022 C 
BRANCH  10  11
ATOM     11  CG  TYR A 143      62.773  19.345  87.565  1.00 52.08    -0.001 A 
ATOM     12  CD1 TYR A 143      63.842  18.595  87.080  1.00 55.58    -0.035 A 
ATOM     13  CE1 TYR A 143      63.730  17.855  85.900  1.00 58.22     0.100 A 
ATOM     14  CZ  TYR A 143      62.536  17.867  85.198  1.00 60.58    -0.121 A 
ATOM     15  CE2 TYR A 143      61.460  18.609  85.661  1.00 60.07     0.100 A 
ATOM     16  CD2 TYR A 143      61.586  19.341  86.840  1.00 56.72    -0.035 A 
BRANCH  14  17
ATOM     17  OH  TYR A 143      62.406  17.139  84.034  1.00 63.91    -0.368 OA
ATOM     18  HH  TYR A 143      61.546  16.890  83.718  1.00  0.00     0.339 HD
ENDBRANCH  14  17
ENDBRANCH  10  11
ENDBRANCH   9  10
END_RES TYR A 143
BEGIN_RES LYS A 145
REMARK  5 active torsions:
REMARK  status: ('A' for Active; 'I' for Inactive)
REMARK    8  A    between atoms: CA   and  CB  
REMARK    9  A    between atoms: CB   and  CG  
REMARK   10  A    between atoms: CG   and  CD  
REMARK   11  A    between atoms: CD   and  CE  
REMARK   12  A    between atoms: CE   and  NZ  
ROOT
ATOM     19  CA  LYS A 145      61.782  26.240  90.241  1.00 28.09     0.227 C 
ENDROOT
BRANCH  19  20
ATOM     20  CB  LYS A 145      60.456  25.589  89.829  1.00 28.44     0.039 C 
BRANCH  20  21
ATOM     21  CG  LYS A 145      60.272  25.387  88.335  1.00 31.62     0.053 C 
BRANCH  21  22
ATOM     22  CD  LYS A 145      59.870  23.955  87.993  1.00 34.02     0.048 C 
BRANCH  22  23
ATOM     23  CE  LYS A 145      60.848  23.359  86.990  1.00 33.58     0.218 C 
BRANCH  23  24
ATOM     24  NZ  LYS A 145      60.703  23.944  85.647  1.00 36.75    -0.272 N 
ATOM     25  HZ3 LYS A 145      61.226  23.410  84.954  1.00  0.00     0.311 HD
ATOM     26  HZ2 LYS A 145      59.761  23.803  85.284  1.00  0.00     0.311 HD
ATOM     27  HZ1 LYS A 145      60.962  24.930  85.623  1.00  0.00     0.311 HD
ENDBRANCH  23  24
ENDBRANCH  22  23
ENDBRANCH  21  22
ENDBRANCH  20  21
ENDBRANCH  19  20
END_RES LYS A 145
BEGIN_RES ALA A 279
REMARK  0 active torsions:
REMARK  status: ('A' for Active; 'I' for Inactive)
ROOT
ATOM     28  CA  ALA A 279      58.677  22.867  81.738  1.00 30.95     0.215 C 
ATOM     29  CB  ALA A 279      59.273  21.559  81.198  1.00 29.24     0.031 C 
ENDROOT
END_RES ALA A 279
ENDMDL
MODEL 10
REMARK VINA RESULT:    -4.839      5.035      8.423
REMARK INTER + INTRA:         -13.897
REMARK INTER:                  -6.416
REMARK INTRA:                  -7.480
REMARK UNBOUND:                -7.078
REMARK SMILES C=CCOC(=O)C1=CS[C@H]2[C@@H]([C@@H](C)OC(C)=O)C(=O)N12
REMARK SMILES IDX 9 1 19 2 20 3 11 4 10 5 18 6 7 7 8 8 12 9 13 10 14 11 15 12
REMARK SMILES IDX 17 13 16 14 5 15 6 16 4 17 3 18 2 19 1 20
REMARK H PARENT
REMARK Flexibility Score: inf
ROOT
ATOM      1  S   UNL     1      60.852  25.215  75.081  1.00  0.00    -0.105 SA
ATOM      2  O   UNL     1      59.309  27.292  71.383  1.00  0.00    -0.274 OA
ATOM      3  N   UNL     1      60.559  25.621  72.489  1.00  0.00    -0.291 N 
ATOM      4  C   UNL     1      58.644  25.727  73.297  1.00  0.00     0.153 C 
ATOM      5  C   UNL     1      59.886  24.857  73.558  1.00  0.00     0.169 C 
ATOM      6  C   UNL     1      59.474  26.385  72.167  1.00  0.00     0.238 C 
ATOM      7  C   UNL     1      61.783  26.111  72.856  1.00  0.00     0.137 C 
ATOM      8  C   UNL     1      62.117  25.960  74.143  1.00  0.00     0.077 C 
ENDROOT
BRANCH   4   9
ATOM      9  C   UNL     1      58.272  26.662  74.422  1.00  0.00     0.189 C 
ATOM     10  C   UNL     1      57.718  27.977  73.887  1.00  0.00     0.054 C 
BRANCH   9  11
ATOM     11  O   UNL     1      57.285  26.042  75.248  1.00  0.00    -0.462 OA
BRANCH  11  12
ATOM     12  C   UNL     1      57.203  26.516  76.525  1.00  0.00     0.302 C 
ATOM     13  O   UNL     1      56.554  27.483  76.898  1.00  0.00    -0.253 OA
ATOM     14  C   UNL     1      58.039  25.667  77.433  1.00  0.00     0.139 C 
ENDBRANCH  11  12
ENDBRANCH   9  11
ENDBRANCH   4   9
BRANCH   7  15
ATOM     15  C   UNL     1      62.626  26.825  71.907  1.00  0.00     0.355 C 
ATOM     16  O   UNL     1      62.981  26.368  70.828  1.00  0.00    -0.244 OA
BRANCH  15  17
ATOM     17  O   UNL     1      62.934  28.046  72.421  1.00  0.00    -0.457 OA
BRANCH  17  18
ATOM     18  C   UNL     1      62.511  29.171  71.645  1.00  0.00     0.260 C 
BRANCH  18  19
ATOM     19  C   UNL     1      61.410  29.870  72.371  1.00  0.00     0.006 C 
ATOM     20  C   UNL     1      61.123  29.671  73.662  1.00  0.00     0.007 C 
ENDBRANCH  18  19
ENDBRANCH  17  18
ENDBRANCH  15  17
ENDBRANCH   7  15
TORSDOF 7
BEGIN_RES SER A  90
REMARK  2 active torsions:
REMARK  status: ('A' for Active; 'I' for Inactive)
REMARK    1  A    between atoms: CA   and  CB  
REMARK    2  A    between atoms: CB   and  OG  
ROOT
ATOM      1  CA  SER A  90      64.797  27.426  83.208  1.00 28.94     0.292 C 
ENDROOT
BRANCH   1   2
ATOM      2  CB  SER A  90      64.021  26.161  83.621  1.00 29.63     0.194 C 
BRANCH   2   3
ATOM      3  OG  SER A  90      64.039  25.162  82.616  1.00 30.29    -0.550 OA
ATOM      4  HG  SER A  90      64.393  24.338  82.930  1.00  0.00     0.310 HD
ENDBRANCH   2   3
ENDBRANCH   1   2
END_RES SER A  90
BEGIN_RES SER A  88
REMARK  2 active torsions:
REMARK  status: ('A' for Active; 'I' for Inactive)
REMARK    3  A    between atoms: CA   and  CB  
REMARK    4  A    between atoms: CB   and  OG  
ROOT
ATOM      5  CA  SER A  88      69.162  24.022  82.855  1.00 38.41     0.292 C 
ENDROOT
BRANCH   5   6
ATOM      6  CB  SER A  88      67.754  23.445  82.669  1.00 37.99     0.194 C 
BRANCH   6   7
ATOM      7  OG  SER A  88      66.818  24.081  83.520  1.00 37.76    -0.550 OA
ATOM      8  HG  SER A  88      67.249  24.512  84.250  1.00  0.00     0.310 HD
ENDBRANCH   6   7
ENDBRANCH   5   6
END_RES SER A  88
BEGIN_RES TYR A 143
REMARK  3 active torsions:
REMARK  status: ('A' for Active; 'I' for Inactive)
REMARK    5  A    between atoms: CA   and  CB  
REMARK    6  A    between atoms: CB   and  CG  
REMARK    7  A    between atoms: CZ   and  OH  
ROOT
ATOM      9  CA  TYR A 143      64.264  20.095  89.524  1.00 42.38     0.245 C 
ENDROOT
BRANCH   9  10
ATOM     10  CB  TYR A 143      62.885  20.126  88.852  1.00 47.73     0.022 C 
BRANCH  10  11
ATOM     11  CG  TYR A 143      62.854  19.667  87.414  1.00 52.08    -0.001 A 
ATOM     12  CD1 TYR A 143      63.888  19.978  86.534  1.00 55.58    -0.035 A 
ATOM     13  CE1 TYR A 143      63.868  19.533  85.210  1.00 58.22     0.100 A 
ATOM     14  CZ  TYR A 143      62.801  18.771  84.761  1.00 60.58    -0.121 A 
ATOM     15  CE2 TYR A 143      61.761  18.452  85.619  1.00 60.07     0.100 A 
ATOM     16  CD2 TYR A 143      61.794  18.901  86.939  1.00 56.72    -0.035 A 
BRANCH  14  17
ATOM     17  OH  TYR A 143      62.768  18.320  83.459  1.00 63.91    -0.368 OA
ATOM     18  HH  TYR A 143      62.804  18.938  82.737  1.00  0.00     0.339 HD
ENDBRANCH  14  17
ENDBRANCH  10  11
ENDBRANCH   9  10
END_RES TYR A 143
BEGIN_RES LYS A 145
REMARK  5 active torsions:
REMARK  status: ('A' for Active; 'I' for Inactive)
REMARK    8  A    between atoms: CA   and  CB  
REMARK    9  A    between atoms: CB   and  CG  
REMARK   10  A    between atoms: CG   and  CD  
REMARK   11  A    between atoms: CD   and  CE  
REMARK   12  A    between atoms: CE   and  NZ  
ROOT
ATOM     19  CA  LYS A 145      61.782  26.240  90.241  1.00 28.09     0.227 C 
ENDROOT
BRANCH  19  20
ATOM     20  CB  LYS A 145      60.456  25.589  89.829  1.00 28.44     0.039 C 
BRANCH  20  21
ATOM     21  CG  LYS A 145      60.277  25.376  88.335  1.00 31.62     0.053 C 
BRANCH  21  22
ATOM     22  CD  LYS A 145      60.465  23.916  87.936  1.00 34.02     0.048 C 
BRANCH  22  23
ATOM     23  CE  LYS A 145      60.839  23.816  86.463  1.00 33.58     0.218 C 
BRANCH  23  24
ATOM     24  NZ  LYS A 145      60.992  22.423  86.015  1.00 36.75    -0.272 N 
ATOM     25  HZ3 LYS A 145      60.703  22.315  85.042  1.00  0.00     0.311 HD
ATOM     26  HZ2 LYS A 145      61.976  22.172  85.922  1.00  0.00     0.311 HD
ATOM     27  HZ1 LYS A 145      60.500  21.764  86.619  1.00  0.00     0.311 HD
ENDBRANCH  23  24
ENDBRANCH  22  23
ENDBRANCH  21  22
ENDBRANCH  20  21
ENDBRANCH  19  20
END_RES LYS A 145
BEGIN_RES ALA A 279
REMARK  0 active torsions:
REMARK  status: ('A' for Active; 'I' for Inactive)
ROOT
ATOM     28  CA  ALA A 279      58.677  22.867  81.738  1.00 30.95     0.215 C 
ATOM     29  CB  ALA A 279      59.273  21.559  81.198  1.00 29.24     0.031 C 
ENDROOT
END_RES ALA A 279
ENDMDL
MODEL 11
REMARK VINA RESULT:    -4.825      5.461      7.547
REMARK INTER + INTRA:         -13.877
REMARK INTER:                  -6.400
REMARK INTRA:                  -7.477
REMARK UNBOUND:                -7.078
REMARK SMILES C=CCOC(=O)C1=CS[C@H]2[C@@H]([C@@H](C)OC(C)=O)C(=O)N12
REMARK SMILES IDX 9 1 19 2 20 3 11 4 10 5 18 6 7 7 8 8 12 9 13 10 14 11 15 12
REMARK SMILES IDX 17 13 16 14 5 15 6 16 4 17 3 18 2 19 1 20
REMARK H PARENT
REMARK Flexibility Score: inf
ROOT
ATOM      1  S   UNL     1      57.684  22.862  78.074  1.00  0.00    -0.105 SA
ATOM      2  O   UNL     1      58.502  26.300  75.266  1.00  0.00    -0.274 OA
ATOM      3  N   UNL     1      57.126  25.071  76.741  1.00  0.00    -0.291 N 
ATOM      4  C   UNL     1      58.989  25.393  77.610  1.00  0.00     0.153 C 
ATOM      5  C   UNL     1      57.688  24.701  78.054  1.00  0.00     0.169 C 
ATOM      6  C   UNL     1      58.228  25.752  76.310  1.00  0.00     0.238 C 
ATOM      7  C   UNL     1      56.543  24.024  76.081  1.00  0.00     0.137 C 
ATOM      8  C   UNL     1      56.697  22.816  76.639  1.00  0.00     0.077 C 
ENDROOT
BRANCH   4   9
ATOM      9  C   UNL     1      60.166  24.469  77.408  1.00  0.00     0.189 C 
ATOM     10  C   UNL     1      61.218  25.104  76.505  1.00  0.00     0.054 C 
BRANCH   9  11
ATOM     11  O   UNL     1      60.757  24.169  78.673  1.00  0.00    -0.462 OA
BRANCH  11  12
ATOM     12  C   UNL     1      61.561  23.067  78.701  1.00  0.00     0.302 C 
ATOM     13  O   UNL     1      61.336  21.992  78.162  1.00  0.00    -0.253 OA
ATOM     14  C   UNL     1      62.793  23.361  79.502  1.00  0.00     0.139 C 
ENDBRANCH  11  12
ENDBRANCH   9  11
ENDBRANCH   4   9
BRANCH   7  15
ATOM     15  C   UNL     1      55.868  24.215  74.805  1.00  0.00     0.355 C 
ATOM     16  O   UNL     1      56.217  23.681  73.759  1.00  0.00    -0.244 OA
BRANCH  15  17
ATOM     17  O   UNL     1      54.819  25.063  74.981  1.00  0.00    -0.457 OA
BRANCH  17  18
ATOM     18  C   UNL     1      54.751  26.165  74.071  1.00  0.00     0.260 C 
BRANCH  18  19
ATOM     19  C   UNL     1      55.172  27.405  74.786  1.00  0.00     0.006 C 
ATOM     20  C   UNL     1      55.907  28.375  74.230  1.00  0.00     0.007 C 
ENDBRANCH  18  19
ENDBRANCH  17  18
ENDBRANCH  15  17
ENDBRANCH   7  15
TORSDOF 7
BEGIN_RES SER A  90
REMARK  2 active torsions:
REMARK  status: ('A' for Active; 'I' for Inactive)
REMARK    1  A    between atoms: CA   and  CB  
REMARK    2  A    between atoms: CB   and  OG  
ROOT
ATOM      1  CA  SER A  90      64.797  27.426  83.208  1.00 28.94     0.292 C 
ENDROOT
BRANCH   1   2
ATOM      2  CB  SER A  90      64.021  26.161  83.621  1.00 29.63     0.194 C 
BRANCH   2   3
ATOM      3  OG  SER A  90      63.990  25.185  82.595  1.00 30.29    -0.550 OA
ATOM      4  HG  SER A  90      63.156  24.733  82.547  1.00  0.00     0.310 HD
ENDBRANCH   2   3
ENDBRANCH   1   2
END_RES SER A  90
BEGIN_RES SER A  88
REMARK  2 active torsions:
REMARK  status: ('A' for Active; 'I' for Inactive)
REMARK    3  A    between atoms: CA   and  CB  
REMARK    4  A    between atoms: CB   and  OG  
ROOT
ATOM      5  CA  SER A  88      69.162  24.022  82.855  1.00 38.41     0.292 C 
ENDROOT
BRANCH   5   6
ATOM      6  CB  SER A  88      67.754  23.445  82.669  1.00 37.99     0.194 C 
BRANCH   6   7
ATOM      7  OG  SER A  88      67.788  22.214  81.970  1.00 37.76    -0.550 OA
ATOM      8  HG  SER A  88      67.901  22.348  81.036  1.00  0.00     0.310 HD
ENDBRANCH   6   7
ENDBRANCH   5   6
END_RES SER A  88
BEGIN_RES TYR A 143
REMARK  3 active torsions:
REMARK  status: ('A' for Active; 'I' for Inactive)
REMARK    5  A    between atoms: CA   and  CB  
REMARK    6  A    between atoms: CB   and  CG  
REMARK    7  A    between atoms: CZ   and  OH  
ROOT
ATOM      9  CA  TYR A 143      64.264  20.095  89.524  1.00 42.38     0.245 C 
ENDROOT
BRANCH   9  10
ATOM     10  CB  TYR A 143      62.885  20.126  88.852  1.00 47.73     0.022 C 
BRANCH  10  11
ATOM     11  CG  TYR A 143      62.837  19.582  87.444  1.00 52.08    -0.001 A 
ATOM     12  CD1 TYR A 143      63.157  20.383  86.350  1.00 55.58    -0.035 A 
ATOM     13  CE1 TYR A 143      63.134  19.872  85.050  1.00 58.22     0.100 A 
ATOM     14  CZ  TYR A 143      62.785  18.547  84.843  1.00 60.58    -0.121 A 
ATOM     15  CE2 TYR A 143      62.460  17.734  85.917  1.00 60.07     0.100 A 
ATOM     16  CD2 TYR A 143      62.489  18.256  87.209  1.00 56.72    -0.035 A 
BRANCH  14  17
ATOM     17  OH  TYR A 143      62.761  18.026  83.566  1.00 63.91    -0.368 OA
ATOM     18  HH  TYR A 143      62.781  17.086  83.432  1.00  0.00     0.339 HD
ENDBRANCH  14  17
ENDBRANCH  10  11
ENDBRANCH   9  10
END_RES TYR A 143
BEGIN_RES LYS A 145
REMARK  5 active torsions:
REMARK  status: ('A' for Active; 'I' for Inactive)
REMARK    8  A    between atoms: CA   and  CB  
REMARK    9  A    between atoms: CB   and  CG  
REMARK   10  A    between atoms: CG   and  CD  
REMARK   11  A    between atoms: CD   and  CE  
REMARK   12  A    between atoms: CE   and  NZ  
ROOT
ATOM     19  CA  LYS A 145      61.782  26.240  90.241  1.00 28.09     0.227 C 
ENDROOT
BRANCH  19  20
ATOM     20  CB  LYS A 145      60.456  25.589  89.829  1.00 28.44     0.039 C 
BRANCH  20  21
ATOM     21  CG  LYS A 145      60.255  25.423  88.332  1.00 31.62     0.053 C 
BRANCH  21  22
ATOM     22  CD  LYS A 145      60.321  23.961  87.902  1.00 34.02     0.048 C 
BRANCH  22  23
ATOM     23  CE  LYS A 145      61.324  23.789  86.769  1.00 33.58     0.218 C 
BRANCH  23  24
ATOM     24  NZ  LYS A 145      60.728  24.047  85.448  1.00 36.75    -0.272 N 
ATOM     25  HZ3 LYS A 145      60.152  23.261  85.145  1.00  0.00     0.311 HD
ATOM     26  HZ2 LYS A 145      60.006  24.765  85.503  1.00  0.00     0.311 HD
ATOM     27  HZ1 LYS A 145      61.428  24.282  84.745  1.00  0.00     0.311 HD
ENDBRANCH  23  24
ENDBRANCH  22  23
ENDBRANCH  21  22
ENDBRANCH  20  21
ENDBRANCH  19  20
END_RES LYS A 145
BEGIN_RES ALA A 279
REMARK  0 active torsions:
REMARK  status: ('A' for Active; 'I' for Inactive)
ROOT
ATOM     28  CA  ALA A 279      58.677  22.867  81.738  1.00 30.95     0.215 C 
ATOM     29  CB  ALA A 279      59.273  21.559  81.198  1.00 29.24     0.031 C 
ENDROOT
END_RES ALA A 279
ENDMDL
MODEL 12
REMARK VINA RESULT:    -4.756      8.384     10.287
REMARK INTER + INTRA:         -13.780
REMARK INTER:                  -6.349
REMARK INTRA:                  -7.431
REMARK UNBOUND:                -7.078
REMARK SMILES C=CCOC(=O)C1=CS[C@H]2[C@@H]([C@@H](C)OC(C)=O)C(=O)N12
REMARK SMILES IDX 9 1 19 2 20 3 11 4 10 5 18 6 7 7 8 8 12 9 13 10 14 11 15 12
REMARK SMILES IDX 17 13 16 14 5 15 6 16 4 17 3 18 2 19 1 20
REMARK H PARENT
REMARK Flexibility Score: inf
ROOT
ATOM      1  S   UNL     1      77.406  29.369  78.041  1.00  0.00    -0.105 SA
ATOM      2  O   UNL     1      73.000  28.395  78.131  1.00  0.00    -0.274 OA
ATOM      3  N   UNL     1      75.285  27.798  78.106  1.00  0.00    -0.291 N 
ATOM      4  C   UNL     1      74.949  29.261  79.547  1.00  0.00     0.153 C 
ATOM      5  C   UNL     1      76.178  28.468  79.071  1.00  0.00     0.169 C 
ATOM      6  C   UNL     1      74.145  28.425  78.521  1.00  0.00     0.238 C 
ATOM      7  C   UNL     1      75.762  27.808  76.823  1.00  0.00     0.137 C 
ATOM      8  C   UNL     1      76.866  28.535  76.610  1.00  0.00     0.077 C 
ENDROOT
BRANCH   4   9
ATOM      9  C   UNL     1      74.989  30.740  79.250  1.00  0.00     0.189 C 
ATOM     10  C   UNL     1      73.626  31.386  79.475  1.00  0.00     0.054 C 
BRANCH   9  11
ATOM     11  O   UNL     1      75.949  31.370  80.099  1.00  0.00    -0.462 OA
BRANCH  11  12
ATOM     12  C   UNL     1      76.306  32.638  79.746  1.00  0.00     0.302 C 
ATOM     13  O   UNL     1      76.594  33.023  78.621  1.00  0.00    -0.253 OA
ATOM     14  C   UNL     1      76.297  33.521  80.957  1.00  0.00     0.139 C 
ENDBRANCH  11  12
ENDBRANCH   9  11
ENDBRANCH   4   9
BRANCH   7  15
ATOM     15  C   UNL     1      75.053  27.129  75.748  1.00  0.00     0.355 C 
ATOM     16  O   UNL     1      74.619  27.694  74.751  1.00  0.00    -0.244 OA
BRANCH  15  17
ATOM     17  O   UNL     1      74.966  25.804  76.042  1.00  0.00    -0.457 OA
BRANCH  17  18
ATOM     18  C   UNL     1      73.642  25.295  76.227  1.00  0.00     0.260 C 
BRANCH  18  19
ATOM     19  C   UNL     1      73.646  24.354  77.385  1.00  0.00     0.006 C 
ATOM     20  C   UNL     1      74.593  24.336  78.330  1.00  0.00     0.007 C 
ENDBRANCH  18  19
ENDBRANCH  17  18
ENDBRANCH  15  17
ENDBRANCH   7  15
TORSDOF 7
BEGIN_RES SER A  90
REMARK  2 active torsions:
REMARK  status: ('A' for Active; 'I' for Inactive)
REMARK    1  A    between atoms: CA   and  CB  
REMARK    2  A    between atoms: CB   and  OG  
ROOT
ATOM      1  CA  SER A  90      64.797  27.426  83.208  1.00 28.94     0.292 C 
ENDROOT
BRANCH   1   2
ATOM      2  CB  SER A  90      64.021  26.161  83.621  1.00 29.63     0.194 C 
BRANCH   2   3
ATOM      3  OG  SER A  90      63.934  25.212  82.573  1.00 30.29    -0.550 OA
ATOM      4  HG  SER A  90      63.196  24.623  82.676  1.00  0.00     0.310 HD
ENDBRANCH   2   3
ENDBRANCH   1   2
END_RES SER A  90
BEGIN_RES SER A  88
REMARK  2 active torsions:
REMARK  status: ('A' for Active; 'I' for Inactive)
REMARK    3  A    between atoms: CA   and  CB  
REMARK    4  A    between atoms: CB   and  OG  
ROOT
ATOM      5  CA  SER A  88      69.162  24.022  82.855  1.00 38.41     0.292 C 
ENDROOT
BRANCH   5   6
ATOM      6  CB  SER A  88      67.754  23.445  82.669  1.00 37.99     0.194 C 
BRANCH   6   7
ATOM      7  OG  SER A  88      67.786  22.226  81.949  1.00 37.76    -0.550 OA
ATOM      8  HG  SER A  88      68.427  22.254  81.248  1.00  0.00     0.310 HD
ENDBRANCH   6   7
ENDBRANCH   5   6
END_RES SER A  88
BEGIN_RES TYR A 143
REMARK  3 active torsions:
REMARK  status: ('A' for Active; 'I' for Inactive)
REMARK    5  A    between atoms: CA   and  CB  
REMARK    6  A    between atoms: CB   and  CG  
REMARK    7  A    between atoms: CZ   and  OH  
ROOT
ATOM      9  CA  TYR A 143      64.264  20.095  89.524  1.00 42.38     0.245 C 
ENDROOT
BRANCH   9  10
ATOM     10  CB  TYR A 143      62.885  20.126  88.852  1.00 47.73     0.022 C 
BRANCH  10  11
ATOM     11  CG  TYR A 143      62.899  20.280  87.350  1.00 52.08    -0.001 A 
ATOM     12  CD1 TYR A 143      64.083  20.529  86.661  1.00 55.58    -0.035 A 
ATOM     13  CE1 TYR A 143      64.098  20.649  85.268  1.00 58.22     0.100 A 
ATOM     14  CZ  TYR A 143      62.914  20.520  84.560  1.00 60.58    -0.121 A 
ATOM     15  CE2 TYR A 143      61.724  20.274  85.226  1.00 60.07     0.100 A 
ATOM     16  CD2 TYR A 143      61.724  20.155  86.615  1.00 56.72    -0.035 A 
BRANCH  14  17
ATOM     17  OH  TYR A 143      62.911  20.631  83.186  1.00 63.91    -0.368 OA
ATOM     18  HH  TYR A 143      63.317  21.379  82.765  1.00  0.00     0.339 HD
ENDBRANCH  14  17
ENDBRANCH  10  11
ENDBRANCH   9  10
END_RES TYR A 143
BEGIN_RES LYS A 145
REMARK  5 active torsions:
REMARK  status: ('A' for Active; 'I' for Inactive)
REMARK    8  A    between atoms: CA   and  CB  
REMARK    9  A    between atoms: CB   and  CG  
REMARK   10  A    between atoms: CG   and  CD  
REMARK   11  A    between atoms: CD   and  CE  
REMARK   12  A    between atoms: CE   and  NZ  
ROOT
ATOM     19  CA  LYS A 145      61.782  26.240  90.241  1.00 28.09     0.227 C 
ENDROOT
BRANCH  19  20
ATOM     20  CB  LYS A 145      60.456  25.589  89.829  1.00 28.44     0.039 C 
BRANCH  20  21
ATOM     21  CG  LYS A 145      60.277  25.375  88.336  1.00 31.62     0.053 C 
BRANCH  21  22
ATOM     22  CD  LYS A 145      60.490  23.919  87.934  1.00 34.02     0.048 C 
BRANCH  22  23
ATOM     23  CE  LYS A 145      60.972  23.836  86.491  1.00 33.58     0.218 C 
BRANCH  23  24
ATOM     24  NZ  LYS A 145      62.441  23.805  86.391  1.00 36.75    -0.272 N 
ATOM     25  HZ3 LYS A 145      62.874  23.890  87.310  1.00  0.00     0.311 HD
ATOM     26  HZ2 LYS A 145      62.773  22.874  86.141  1.00  0.00     0.311 HD
ATOM     27  HZ1 LYS A 145      62.801  24.509  85.747  1.00  0.00     0.311 HD
ENDBRANCH  23  24
ENDBRANCH  22  23
ENDBRANCH  21  22
ENDBRANCH  20  21
ENDBRANCH  19  20
END_RES LYS A 145
BEGIN_RES ALA A 279
REMARK  0 active torsions:
REMARK  status: ('A' for Active; 'I' for Inactive)
ROOT
ATOM     28  CA  ALA A 279      58.677  22.867  81.738  1.00 30.95     0.215 C 
ATOM     29  CB  ALA A 279      59.273  21.559  81.198  1.00 29.24     0.031 C 
ENDROOT
END_RES ALA A 279
ENDMDL
MODEL 13
REMARK VINA RESULT:    -4.709      6.108      7.994
REMARK INTER + INTRA:         -13.714
REMARK INTER:                  -6.266
REMARK INTRA:                  -7.448
REMARK UNBOUND:                -7.078
REMARK SMILES C=CCOC(=O)C1=CS[C@H]2[C@@H]([C@@H](C)OC(C)=O)C(=O)N12
REMARK SMILES IDX 9 1 19 2 20 3 11 4 10 5 18 6 7 7 8 8 12 9 13 10 14 11 15 12
REMARK SMILES IDX 17 13 16 14 5 15 6 16 4 17 3 18 2 19 1 20
REMARK H PARENT
REMARK Flexibility Score: inf
ROOT
ATOM      1  S   UNL     1      57.266  28.924  74.470  1.00  0.00    -0.105 SA
ATOM      2  O   UNL     1      57.917  24.782  72.799  1.00  0.00    -0.274 OA
ATOM      3  N   UNL     1      56.550  26.556  73.549  1.00  0.00    -0.291 N 
ATOM      4  C   UNL     1      57.975  27.273  72.213  1.00  0.00     0.153 C 
ATOM      5  C   UNL     1      56.818  27.902  73.008  1.00  0.00     0.169 C 
ATOM      6  C   UNL     1      57.522  25.925  72.826  1.00  0.00     0.238 C 
ATOM      7  C   UNL     1      56.443  26.527  74.913  1.00  0.00     0.137 C 
ATOM      8  C   UNL     1      56.739  27.665  75.552  1.00  0.00     0.077 C 
ENDROOT
BRANCH   4   9
ATOM      9  C   UNL     1      59.355  27.717  72.635  1.00  0.00     0.189 C 
ATOM     10  C   UNL     1      60.407  26.680  72.258  1.00  0.00     0.054 C 
BRANCH   9  11
ATOM     11  O   UNL     1      59.671  28.955  71.997  1.00  0.00    -0.462 OA
BRANCH  11  12
ATOM     12  C   UNL     1      60.702  29.657  72.551  1.00  0.00     0.302 C 
ATOM     13  O   UNL     1      60.857  29.899  73.740  1.00  0.00    -0.253 OA
ATOM     14  C   UNL     1      61.646  30.101  71.476  1.00  0.00     0.139 C 
ENDBRANCH  11  12
ENDBRANCH   9  11
ENDBRANCH   4   9
BRANCH   7  15
ATOM     15  C   UNL     1      56.106  25.299  75.619  1.00  0.00     0.355 C 
ATOM     16  O   UNL     1      55.226  24.524  75.262  1.00  0.00    -0.244 OA
BRANCH  15  17
ATOM     17  O   UNL     1      56.916  25.175  76.704  1.00  0.00    -0.457 OA
BRANCH  17  18
ATOM     18  C   UNL     1      57.758  24.018  76.722  1.00  0.00     0.260 C 
BRANCH  18  19
ATOM     19  C   UNL     1      57.312  23.116  77.824  1.00  0.00     0.006 C 
ATOM     20  C   UNL     1      56.553  22.030  77.640  1.00  0.00     0.007 C 
ENDBRANCH  18  19
ENDBRANCH  17  18
ENDBRANCH  15  17
ENDBRANCH   7  15
TORSDOF 7
BEGIN_RES SER A  90
REMARK  2 active torsions:
REMARK  status: ('A' for Active; 'I' for Inactive)
REMARK    1  A    between atoms: CA   and  CB  
REMARK    2  A    between atoms: CB   and  OG  
ROOT
ATOM      1  CA  SER A  90      64.797  27.426  83.208  1.00 28.94     0.292 C 
ENDROOT
BRANCH   1   2
ATOM      2  CB  SER A  90      64.021  26.161  83.621  1.00 29.63     0.194 C 
BRANCH   2   3
ATOM      3  OG  SER A  90      64.041  25.161  82.617  1.00 30.29    -0.550 OA
ATOM      4  HG  SER A  90      64.884  25.098  82.184  1.00  0.00     0.310 HD
ENDBRANCH   2   3
ENDBRANCH   1   2
END_RES SER A  90
BEGIN_RES SER A  88
REMARK  2 active torsions:
REMARK  status: ('A' for Active; 'I' for Inactive)
REMARK    3  A    between atoms: CA   and  CB  
REMARK    4  A    between atoms: CB   and  OG  
ROOT
ATOM      5  CA  SER A  88      69.162  24.022  82.855  1.00 38.41     0.292 C 
ENDROOT
BRANCH   5   6
ATOM      6  CB  SER A  88      67.754  23.445  82.669  1.00 37.99     0.194 C 
BRANCH   6   7
ATOM      7  OG  SER A  88      66.818  24.081  83.520  1.00 37.76    -0.550 OA
ATOM      8  HG  SER A  88      67.251  24.536  84.234  1.00  0.00     0.310 HD
ENDBRANCH   6   7
ENDBRANCH   5   6
END_RES SER A  88
BEGIN_RES TYR A 143
REMARK  3 active torsions:
REMARK  status: ('A' for Active; 'I' for Inactive)
REMARK    5  A    between atoms: CA   and  CB  
REMARK    6  A    between atoms: CB   and  CG  
REMARK    7  A    between atoms: CZ   and  OH  
ROOT
ATOM      9  CA  TYR A 143      64.264  20.095  89.524  1.00 42.38     0.245 C 
ENDROOT
BRANCH   9  10
ATOM     10  CB  TYR A 143      62.885  20.126  88.852  1.00 47.73     0.022 C 
BRANCH  10  11
ATOM     11  CG  TYR A 143      62.899  20.250  87.348  1.00 52.08    -0.001 A 
ATOM     12  CD1 TYR A 143      64.089  20.452  86.651  1.00 55.58    -0.035 A 
ATOM     13  CE1 TYR A 143      64.103  20.544  85.257  1.00 58.22     0.100 A 
ATOM     14  CZ  TYR A 143      62.915  20.434  84.553  1.00 60.58    -0.121 A 
ATOM     15  CE2 TYR A 143      61.720  20.235  85.226  1.00 60.07     0.100 A 
ATOM     16  CD2 TYR A 143      61.720  20.144  86.617  1.00 56.72    -0.035 A 
BRANCH  14  17
ATOM     17  OH  TYR A 143      62.912  20.518  83.177  1.00 63.91    -0.368 OA
ATOM     18  HH  TYR A 143      62.514  21.264  82.743  1.00  0.00     0.339 HD
ENDBRANCH  14  17
ENDBRANCH  10  11
ENDBRANCH   9  10
END_RES TYR A 143
BEGIN_RES LYS A 145
REMARK  5 active torsions:
REMARK  status: ('A' for Active; 'I' for Inactive)
REMARK    8  A    between atoms: CA   and  CB  
REMARK    9  A    between atoms: CB   and  CG  
REMARK   10  A    between atoms: CG   and  CD  
REMARK   11  A    between atoms: CD   and  CE  
REMARK   12  A    between atoms: CE   and  NZ  
ROOT
ATOM     19  CA  LYS A 145      61.782  26.240  90.241  1.00 28.09     0.227 C 
ENDROOT
BRANCH  19  20
ATOM     20  CB  LYS A 145      60.456  25.589  89.829  1.00 28.44     0.039 C 
BRANCH  20  21
ATOM     21  CG  LYS A 145      60.270  25.391  88.334  1.00 31.62     0.053 C 
BRANCH  21  22
ATOM     22  CD  LYS A 145      60.256  23.916  87.946  1.00 34.02     0.048 C 
BRANCH  22  23
ATOM     23  CE  LYS A 145      60.794  23.738  86.533  1.00 33.58     0.218 C 
BRANCH  23  24
ATOM     24  NZ  LYS A 145      62.260  23.856  86.470  1.00 36.75    -0.272 N 
ATOM     25  HZ3 LYS A 145      62.591  24.632  87.043  1.00  0.00     0.311 HD
ATOM     26  HZ2 LYS A 145      62.712  23.086  86.963  1.00  0.00     0.311 HD
ATOM     27  HZ1 LYS A 145      62.604  23.932  85.514  1.00  0.00     0.311 HD
ENDBRANCH  23  24
ENDBRANCH  22  23
ENDBRANCH  21  22
ENDBRANCH  20  21
ENDBRANCH  19  20
END_RES LYS A 145
BEGIN_RES ALA A 279
REMARK  0 active torsions:
REMARK  status: ('A' for Active; 'I' for Inactive)
ROOT
ATOM     28  CA  ALA A 279      58.677  22.867  81.738  1.00 30.95     0.215 C 
ATOM     29  CB  ALA A 279      59.273  21.559  81.198  1.00 29.24     0.031 C 
ENDROOT
END_RES ALA A 279
ENDMDL
MODEL 14
REMARK VINA RESULT:    -4.679      6.499      9.575
REMARK INTER + INTRA:         -13.672
REMARK INTER:                  -6.712
REMARK INTRA:                  -6.959
REMARK UNBOUND:                -7.078
REMARK SMILES C=CCOC(=O)C1=CS[C@H]2[C@@H]([C@@H](C)OC(C)=O)C(=O)N12
REMARK SMILES IDX 9 1 19 2 20 3 11 4 10 5 18 6 7 7 8 8 12 9 13 10 14 11 15 12
REMARK SMILES IDX 17 13 16 14 5 15 6 16 4 17 3 18 2 19 1 20
REMARK H PARENT
REMARK Flexibility Score: inf
ROOT
ATOM      1  S   UNL     1      55.947  27.795  73.134  1.00  0.00    -0.105 SA
ATOM      2  O   UNL     1      59.787  25.738  74.319  1.00  0.00    -0.274 OA
ATOM      3  N   UNL     1      58.440  27.651  73.992  1.00  0.00    -0.291 N 
ATOM      4  C   UNL     1      57.388  26.217  75.073  1.00  0.00     0.153 C 
ATOM      5  C   UNL     1      57.083  27.640  74.572  1.00  0.00     0.169 C 
ATOM      6  C   UNL     1      58.795  26.417  74.458  1.00  0.00     0.238 C 
ATOM      7  C   UNL     1      58.469  28.031  72.678  1.00  0.00     0.137 C 
ATOM      8  C   UNL     1      57.280  28.187  72.082  1.00  0.00     0.077 C 
ENDROOT
BRANCH   4   9
ATOM      9  C   UNL     1      56.574  25.124  74.422  1.00  0.00     0.189 C 
ATOM     10  C   UNL     1      57.409  23.866  74.210  1.00  0.00     0.054 C 
BRANCH   9  11
ATOM     11  O   UNL     1      55.456  24.806  75.253  1.00  0.00    -0.462 OA
BRANCH  11  12
ATOM     12  C   UNL     1      54.229  24.992  74.686  1.00  0.00     0.302 C 
ATOM     13  O   UNL     1      53.466  25.924  74.900  1.00  0.00    -0.253 OA
ATOM     14  C   UNL     1      53.936  23.869  73.738  1.00  0.00     0.139 C 
ENDBRANCH  11  12
ENDBRANCH   9  11
ENDBRANCH   4   9
BRANCH   7  15
ATOM     15  C   UNL     1      59.728  28.173  71.960  1.00  0.00     0.355 C 
ATOM     16  O   UNL     1      60.185  27.323  71.206  1.00  0.00    -0.244 OA
BRANCH  15  17
ATOM     17  O   UNL     1      60.280  29.377  72.268  1.00  0.00    -0.457 OA
BRANCH  17  18
ATOM     18  C   UNL     1      60.964  30.038  71.199  1.00  0.00     0.260 C 
BRANCH  18  19
ATOM     19  C   UNL     1      62.393  30.225  71.587  1.00  0.00     0.006 C 
ATOM     20  C   UNL     1      63.287  30.890  70.847  1.00  0.00     0.007 C 
ENDBRANCH  18  19
ENDBRANCH  17  18
ENDBRANCH  15  17
ENDBRANCH   7  15
TORSDOF 7
BEGIN_RES SER A  90
REMARK  2 active torsions:
REMARK  status: ('A' for Active; 'I' for Inactive)
REMARK    1  A    between atoms: CA   and  CB  
REMARK    2  A    between atoms: CB   and  OG  
ROOT
ATOM      1  CA  SER A  90      64.797  27.426  83.208  1.00 28.94     0.292 C 
ENDROOT
BRANCH   1   2
ATOM      2  CB  SER A  90      64.021  26.161  83.621  1.00 29.63     0.194 C 
BRANCH   2   3
ATOM      3  OG  SER A  90      63.950  25.204  82.578  1.00 30.29    -0.550 OA
ATOM      4  HG  SER A  90      64.221  25.560  81.740  1.00  0.00     0.310 HD
ENDBRANCH   2   3
ENDBRANCH   1   2
END_RES SER A  90
BEGIN_RES SER A  88
REMARK  2 active torsions:
REMARK  status: ('A' for Active; 'I' for Inactive)
REMARK    3  A    between atoms: CA   and  CB  
REMARK    4  A    between atoms: CB   and  OG  
ROOT
ATOM      5  CA  SER A  88      69.162  24.022  82.855  1.00 38.41     0.292 C 
ENDROOT
BRANCH   5   6
ATOM      6  CB  SER A  88      67.754  23.445  82.669  1.00 37.99     0.194 C 
BRANCH   6   7
ATOM      7  OG  SER A  88      67.788  22.215  81.969  1.00 37.76    -0.550 OA
ATOM      8  HG  SER A  88      68.530  22.173  81.376  1.00  0.00     0.310 HD
ENDBRANCH   6   7
ENDBRANCH   5   6
END_RES SER A  88
BEGIN_RES TYR A 143
REMARK  3 active torsions:
REMARK  status: ('A' for Active; 'I' for Inactive)
REMARK    5  A    between atoms: CA   and  CB  
REMARK    6  A    between atoms: CB   and  CG  
REMARK    7  A    between atoms: CZ   and  OH  
ROOT
ATOM      9  CA  TYR A 143      64.264  20.095  89.524  1.00 42.38     0.245 C 
ENDROOT
BRANCH   9  10
ATOM     10  CB  TYR A 143      62.885  20.126  88.852  1.00 47.73     0.022 C 
BRANCH  10  11
ATOM     11  CG  TYR A 143      62.892  20.408  87.369  1.00 52.08    -0.001 A 
ATOM     12  CD1 TYR A 143      61.798  20.089  86.568  1.00 55.58    -0.035 A 
ATOM     13  CE1 TYR A 143      61.797  20.371  85.199  1.00 58.22     0.100 A 
ATOM     14  CZ  TYR A 143      62.905  20.976  84.626  1.00 60.58    -0.121 A 
ATOM     15  CE2 TYR A 143      64.005  21.299  85.404  1.00 60.07     0.100 A 
ATOM     16  CD2 TYR A 143      63.992  21.014  86.769  1.00 56.72    -0.035 A 
BRANCH  14  17
ATOM     17  OH  TYR A 143      62.919  21.265  83.279  1.00 63.91    -0.368 OA
ATOM     18  HH  TYR A 143      62.994  22.164  82.982  1.00  0.00     0.339 HD
ENDBRANCH  14  17
ENDBRANCH  10  11
ENDBRANCH   9  10
END_RES TYR A 143
BEGIN_RES LYS A 145
REMARK  5 active torsions:
REMARK  status: ('A' for Active; 'I' for Inactive)
REMARK    8  A    between atoms: CA   and  CB  
REMARK    9  A    between atoms: CB   and  CG  
REMARK   10  A    between atoms: CG   and  CD  
REMARK   11  A    between atoms: CD   and  CE  
REMARK   12  A    between atoms: CE   and  NZ  
ROOT
ATOM     19  CA  LYS A 145      61.782  26.240  90.241  1.00 28.09     0.227 C 
ENDROOT
BRANCH  19  20
ATOM     20  CB  LYS A 145      60.456  25.589  89.829  1.00 28.44     0.039 C 
BRANCH  20  21
ATOM     21  CG  LYS A 145      60.263  25.405  88.333  1.00 31.62     0.053 C 
BRANCH  21  22
ATOM     22  CD  LYS A 145      60.419  23.949  87.907  1.00 34.02     0.048 C 
BRANCH  22  23
ATOM     23  CE  LYS A 145      61.079  23.868  86.538  1.00 33.58     0.218 C 
BRANCH  23  24
ATOM     24  NZ  LYS A 145      61.852  25.078  86.214  1.00 36.75    -0.272 N 
ATOM     25  HZ3 LYS A 145      62.025  25.147  85.211  1.00  0.00     0.311 HD
ATOM     26  HZ2 LYS A 145      61.289  25.919  86.340  1.00  0.00     0.311 HD
ATOM     27  HZ1 LYS A 145      62.722  25.136  86.742  1.00  0.00     0.311 HD
ENDBRANCH  23  24
ENDBRANCH  22  23
ENDBRANCH  21  22
ENDBRANCH  20  21
ENDBRANCH  19  20
END_RES LYS A 145
BEGIN_RES ALA A 279
REMARK  0 active torsions:
REMARK  status: ('A' for Active; 'I' for Inactive)
ROOT
ATOM     28  CA  ALA A 279      58.677  22.867  81.738  1.00 30.95     0.215 C 
ATOM     29  CB  ALA A 279      59.273  21.559  81.198  1.00 29.24     0.031 C 
ENDROOT
END_RES ALA A 279
ENDMDL
MODEL 15
REMARK VINA RESULT:    -4.677      8.959     10.853
REMARK INTER + INTRA:         -13.669
REMARK INTER:                  -6.550
REMARK INTRA:                  -7.119
REMARK UNBOUND:                -7.078
REMARK SMILES C=CCOC(=O)C1=CS[C@H]2[C@@H]([C@@H](C)OC(C)=O)C(=O)N12
REMARK SMILES IDX 9 1 19 2 20 3 11 4 10 5 18 6 7 7 8 8 12 9 13 10 14 11 15 12
REMARK SMILES IDX 17 13 16 14 5 15 6 16 4 17 3 18 2 19 1 20
REMARK H PARENT
REMARK Flexibility Score: inf
ROOT
ATOM      1  S   UNL     1      77.833  29.476  79.665  1.00  0.00    -0.105 SA
ATOM      2  O   UNL     1      73.320  29.360  79.701  1.00  0.00    -0.274 OA
ATOM      3  N   UNL     1      75.451  28.450  80.160  1.00  0.00    -0.291 N 
ATOM      4  C   UNL     1      75.364  30.421  80.820  1.00  0.00     0.153 C 
ATOM      5  C   UNL     1      76.432  29.314  80.845  1.00  0.00     0.169 C 
ATOM      6  C   UNL     1      74.441  29.369  80.159  1.00  0.00     0.238 C 
ATOM      7  C   UNL     1      75.952  27.833  79.046  1.00  0.00     0.137 C 
ATOM      8  C   UNL     1      77.178  28.210  78.663  1.00  0.00     0.077 C 
ENDROOT
BRANCH   4   9
ATOM      9  C   UNL     1      75.691  31.603  79.940  1.00  0.00     0.189 C 
ATOM     10  C   UNL     1      74.433  32.186  79.307  1.00  0.00     0.054 C 
BRANCH   9  11
ATOM     11  O   UNL     1      76.332  32.614  80.720  1.00  0.00    -0.462 OA
BRANCH  11  12
ATOM     12  C   UNL     1      77.398  33.227  80.129  1.00  0.00     0.302 C 
ATOM     13  O   UNL     1      77.667  33.222  78.936  1.00  0.00    -0.253 OA
ATOM     14  C   UNL     1      78.216  33.929  81.170  1.00  0.00     0.139 C 
ENDBRANCH  11  12
ENDBRANCH   9  11
ENDBRANCH   4   9
BRANCH   7  15
ATOM     15  C   UNL     1      75.152  26.884  78.284  1.00  0.00     0.355 C 
ATOM     16  O   UNL     1      75.069  25.691  78.549  1.00  0.00    -0.244 OA
BRANCH  15  17
ATOM     17  O   UNL     1      74.539  27.540  77.263  1.00  0.00    -0.457 OA
BRANCH  17  18
ATOM     18  C   UNL     1      74.181  26.738  76.133  1.00  0.00     0.260 C 
BRANCH  18  19
ATOM     19  C   UNL     1      74.980  27.184  74.954  1.00  0.00     0.006 C 
ATOM     20  C   UNL     1      75.269  26.403  73.908  1.00  0.00     0.007 C 
ENDBRANCH  18  19
ENDBRANCH  17  18
ENDBRANCH  15  17
ENDBRANCH   7  15
TORSDOF 7
BEGIN_RES SER A  90
REMARK  2 active torsions:
REMARK  status: ('A' for Active; 'I' for Inactive)
REMARK    1  A    between atoms: CA   and  CB  
REMARK    2  A    between atoms: CB   and  OG  
ROOT
ATOM      1  CA  SER A  90      64.797  27.426  83.208  1.00 28.94     0.292 C 
ENDROOT
BRANCH   1   2
ATOM      2  CB  SER A  90      64.021  26.161  83.621  1.00 29.63     0.194 C 
BRANCH   2   3
ATOM      3  OG  SER A  90      64.054  25.155  82.624  1.00 30.29    -0.550 OA
ATOM      4  HG  SER A  90      64.342  24.316  82.963  1.00  0.00     0.310 HD
ENDBRANCH   2   3
ENDBRANCH   1   2
END_RES SER A  90
BEGIN_RES SER A  88
REMARK  2 active torsions:
REMARK  status: ('A' for Active; 'I' for Inactive)
REMARK    3  A    between atoms: CA   and  CB  
REMARK    4  A    between atoms: CB   and  OG  
ROOT
ATOM      5  CA  SER A  88      69.162  24.022  82.855  1.00 38.41     0.292 C 
ENDROOT
BRANCH   5   6
ATOM      6  CB  SER A  88      67.754  23.445  82.669  1.00 37.99     0.194 C 
BRANCH   6   7
ATOM      7  OG  SER A  88      66.820  24.073  83.528  1.00 37.76    -0.550 OA
ATOM      8  HG  SER A  88      66.013  23.575  83.586  1.00  0.00     0.310 HD
ENDBRANCH   6   7
ENDBRANCH   5   6
END_RES SER A  88
BEGIN_RES TYR A 143
REMARK  3 active torsions:
REMARK  status: ('A' for Active; 'I' for Inactive)
REMARK    5  A    between atoms: CA   and  CB  
REMARK    6  A    between atoms: CB   and  CG  
REMARK    7  A    between atoms: CZ   and  OH  
ROOT
ATOM      9  CA  TYR A 143      64.264  20.095  89.524  1.00 42.38     0.245 C 
ENDROOT
BRANCH   9  10
ATOM     10  CB  TYR A 143      62.885  20.126  88.852  1.00 47.73     0.022 C 
BRANCH  10  11
ATOM     11  CG  TYR A 143      62.853  19.661  87.416  1.00 52.08    -0.001 A 
ATOM     12  CD1 TYR A 143      61.819  18.856  86.941  1.00 55.58    -0.035 A 
ATOM     13  CE1 TYR A 143      61.779  18.445  85.606  1.00 58.22     0.100 A 
ATOM     14  CZ  TYR A 143      62.784  18.841  84.739  1.00 60.58    -0.121 A 
ATOM     15  CE2 TYR A 143      63.823  19.640  85.191  1.00 60.07     0.100 A 
ATOM     16  CD2 TYR A 143      63.850  20.044  86.525  1.00 56.72    -0.035 A 
BRANCH  14  17
ATOM     17  OH  TYR A 143      62.757  18.448  83.418  1.00 63.91    -0.368 OA
ATOM     18  HH  TYR A 143      63.116  17.607  83.161  1.00  0.00     0.339 HD
ENDBRANCH  14  17
ENDBRANCH  10  11
ENDBRANCH   9  10
END_RES TYR A 143
BEGIN_RES LYS A 145
REMARK  5 active torsions:
REMARK  status: ('A' for Active; 'I' for Inactive)
REMARK    8  A    between atoms: CA   and  CB  
REMARK    9  A    between atoms: CB   and  CG  
REMARK   10  A    between atoms: CG   and  CD  
REMARK   11  A    between atoms: CD   and  CE  
REMARK   12  A    between atoms: CE   and  NZ  
ROOT
ATOM     19  CA  LYS A 145      61.782  26.240  90.241  1.00 28.09     0.227 C 
ENDROOT
BRANCH  19  20
ATOM     20  CB  LYS A 145      60.456  25.589  89.829  1.00 28.44     0.039 C 
BRANCH  20  21
ATOM     21  CG  LYS A 145      60.273  25.383  88.335  1.00 31.62     0.053 C 
BRANCH  21  22
ATOM     22  CD  LYS A 145      60.346  23.911  87.943  1.00 34.02     0.048 C 
BRANCH  22  23
ATOM     23  CE  LYS A 145      60.954  23.764  86.555  1.00 33.58     0.218 C 
BRANCH  23  24
ATOM     24  NZ  LYS A 145      60.900  22.378  86.062  1.00 36.75    -0.272 N 
ATOM     25  HZ3 LYS A 145      60.782  22.352  85.049  1.00  0.00     0.311 HD
ATOM     26  HZ2 LYS A 145      61.812  21.927  86.131  1.00  0.00     0.311 HD
ATOM     27  HZ1 LYS A 145      60.181  21.827  86.529  1.00  0.00     0.311 HD
ENDBRANCH  23  24
ENDBRANCH  22  23
ENDBRANCH  21  22
ENDBRANCH  20  21
ENDBRANCH  19  20
END_RES LYS A 145
BEGIN_RES ALA A 279
REMARK  0 active torsions:
REMARK  status: ('A' for Active; 'I' for Inactive)
ROOT
ATOM     28  CA  ALA A 279      58.677  22.867  81.738  1.00 30.95     0.215 C 
ATOM     29  CB  ALA A 279      59.273  21.559  81.198  1.00 29.24     0.031 C 
ENDROOT
END_RES ALA A 279
ENDMDL
MODEL 16
REMARK VINA RESULT:    -4.675      2.701      5.511
REMARK INTER + INTRA:         -13.666
REMARK INTER:                  -6.025
REMARK INTRA:                  -7.641
REMARK UNBOUND:                -7.078
REMARK SMILES C=CCOC(=O)C1=CS[C@H]2[C@@H]([C@@H](C)OC(C)=O)C(=O)N12
REMARK SMILES IDX 9 1 19 2 20 3 11 4 10 5 18 6 7 7 8 8 12 9 13 10 14 11 15 12
REMARK SMILES IDX 17 13 16 14 5 15 6 16 4 17 3 18 2 19 1 20
REMARK H PARENT
REMARK Flexibility Score: inf
ROOT
ATOM      1  S   UNL     1      65.465  22.952  77.223  1.00  0.00    -0.105 SA
ATOM      2  O   UNL     1      68.864  25.311  79.029  1.00  0.00    -0.274 OA
ATOM      3  N   UNL     1      67.061  25.033  77.529  1.00  0.00    -0.291 N 
ATOM      4  C   UNL     1      66.479  24.482  79.449  1.00  0.00     0.153 C 
ATOM      5  C   UNL     1      65.780  24.549  78.080  1.00  0.00     0.169 C 
ATOM      6  C   UNL     1      67.721  25.054  78.724  1.00  0.00     0.238 C 
ATOM      7  C   UNL     1      67.471  24.349  76.418  1.00  0.00     0.137 C 
ATOM      8  C   UNL     1      66.749  23.270  76.089  1.00  0.00     0.077 C 
ENDROOT
BRANCH   4   9
ATOM      9  C   UNL     1      66.666  23.090  80.003  1.00  0.00     0.189 C 
ATOM     10  C   UNL     1      68.091  22.883  80.503  1.00  0.00     0.054 C 
BRANCH   9  11
ATOM     11  O   UNL     1      65.758  22.882  81.085  1.00  0.00    -0.462 OA
BRANCH  11  12
ATOM     12  C   UNL     1      64.582  22.273  80.758  1.00  0.00     0.302 C 
ATOM     13  O   UNL     1      63.469  22.781  80.787  1.00  0.00    -0.253 OA
ATOM     14  C   UNL     1      64.845  20.857  80.345  1.00  0.00     0.139 C 
ENDBRANCH  11  12
ENDBRANCH   9  11
ENDBRANCH   4   9
BRANCH   7  15
ATOM     15  C   UNL     1      68.673  24.735  75.693  1.00  0.00     0.355 C 
ATOM     16  O   UNL     1      68.853  25.845  75.208  1.00  0.00    -0.244 OA
BRANCH  15  17
ATOM     17  O   UNL     1      69.527  23.677  75.656  1.00  0.00    -0.457 OA
BRANCH  17  18
ATOM     18  C   UNL     1      70.715  23.809  76.444  1.00  0.00     0.260 C 
BRANCH  18  19
ATOM     19  C   UNL     1      70.709  22.758  77.503  1.00  0.00     0.006 C 
ATOM     20  C   UNL     1      71.395  22.847  78.647  1.00  0.00     0.007 C 
ENDBRANCH  18  19
ENDBRANCH  17  18
ENDBRANCH  15  17
ENDBRANCH   7  15
TORSDOF 7
BEGIN_RES SER A  90
REMARK  2 active torsions:
REMARK  status: ('A' for Active; 'I' for Inactive)
REMARK    1  A    between atoms: CA   and  CB  
REMARK    2  A    between atoms: CB   and  OG  
ROOT
ATOM      1  CA  SER A  90      64.797  27.426  83.208  1.00 28.94     0.292 C 
ENDROOT
BRANCH   1   2
ATOM      2  CB  SER A  90      64.021  26.161  83.621  1.00 29.63     0.194 C 
BRANCH   2   3
ATOM      3  OG  SER A  90      64.089  25.140  82.641  1.00 30.29    -0.550 OA
ATOM      4  HG  SER A  90      63.281  24.643  82.577  1.00  0.00     0.310 HD
ENDBRANCH   2   3
ENDBRANCH   1   2
END_RES SER A  90
BEGIN_RES SER A  88
REMARK  2 active torsions:
REMARK  status: ('A' for Active; 'I' for Inactive)
REMARK    3  A    between atoms: CA   and  CB  
REMARK    4  A    between atoms: CB   and  OG  
ROOT
ATOM      5  CA  SER A  88      69.162  24.022  82.855  1.00 38.41     0.292 C 
ENDROOT
BRANCH   5   6
ATOM      6  CB  SER A  88      67.754  23.445  82.669  1.00 37.99     0.194 C 
BRANCH   6   7
ATOM      7  OG  SER A  88      66.822  24.067  83.534  1.00 37.76    -0.550 OA
ATOM      8  HG  SER A  88      66.240  24.649  83.057  1.00  0.00     0.310 HD
ENDBRANCH   6   7
ENDBRANCH   5   6
END_RES SER A  88
BEGIN_RES TYR A 143
REMARK  3 active torsions:
REMARK  status: ('A' for Active; 'I' for Inactive)
REMARK    5  A    between atoms: CA   and  CB  
REMARK    6  A    between atoms: CB   and  CG  
REMARK    7  A    between atoms: CZ   and  OH  
ROOT
ATOM      9  CA  TYR A 143      64.264  20.095  89.524  1.00 42.38     0.245 C 
ENDROOT
BRANCH   9  10
ATOM     10  CB  TYR A 143      62.885  20.126  88.852  1.00 47.73     0.022 C 
BRANCH  10  11
ATOM     11  CG  TYR A 143      62.893  20.403  87.368  1.00 52.08    -0.001 A 
ATOM     12  CD1 TYR A 143      61.798  20.083  86.568  1.00 55.58    -0.035 A 
ATOM     13  CE1 TYR A 143      61.798  20.360  85.198  1.00 58.22     0.100 A 
ATOM     14  CZ  TYR A 143      62.906  20.962  84.624  1.00 60.58    -0.121 A 
ATOM     15  CE2 TYR A 143      64.006  21.287  85.401  1.00 60.07     0.100 A 
ATOM     16  CD2 TYR A 143      63.992  21.006  86.766  1.00 56.72    -0.035 A 
BRANCH  14  17
ATOM     17  OH  TYR A 143      62.920  21.247  83.275  1.00 63.91    -0.368 OA
ATOM     18  HH  TYR A 143      62.125  21.523  82.835  1.00  0.00     0.339 HD
ENDBRANCH  14  17
ENDBRANCH  10  11
ENDBRANCH   9  10
END_RES TYR A 143
BEGIN_RES LYS A 145
REMARK  5 active torsions:
REMARK  status: ('A' for Active; 'I' for Inactive)
REMARK    8  A    between atoms: CA   and  CB  
REMARK    9  A    between atoms: CB   and  CG  
REMARK   10  A    between atoms: CG   and  CD  
REMARK   11  A    between atoms: CD   and  CE  
REMARK   12  A    between atoms: CE   and  NZ  
ROOT
ATOM     19  CA  LYS A 145      61.782  26.240  90.241  1.00 28.09     0.227 C 
ENDROOT
BRANCH  19  20
ATOM     20  CB  LYS A 145      60.456  25.589  89.829  1.00 28.44     0.039 C 
BRANCH  20  21
ATOM     21  CG  LYS A 145      60.269  25.392  88.334  1.00 31.62     0.053 C 
BRANCH  21  22
ATOM     22  CD  LYS A 145      60.458  23.936  87.918  1.00 34.02     0.048 C 
BRANCH  22  23
ATOM     23  CE  LYS A 145      61.420  23.845  86.741  1.00 33.58     0.218 C 
BRANCH  23  24
ATOM     24  NZ  LYS A 145      60.733  23.962  85.444  1.00 36.75    -0.272 N 
ATOM     25  HZ3 LYS A 145      59.845  24.455  85.541  1.00  0.00     0.311 HD
ATOM     26  HZ2 LYS A 145      61.216  24.618  84.830  1.00  0.00     0.311 HD
ATOM     27  HZ1 LYS A 145      60.604  23.059  84.989  1.00  0.00     0.311 HD
ENDBRANCH  23  24
ENDBRANCH  22  23
ENDBRANCH  21  22
ENDBRANCH  20  21
ENDBRANCH  19  20
END_RES LYS A 145
BEGIN_RES ALA A 279
REMARK  0 active torsions:
REMARK  status: ('A' for Active; 'I' for Inactive)
ROOT
ATOM     28  CA  ALA A 279      58.677  22.867  81.738  1.00 30.95     0.215 C 
ATOM     29  CB  ALA A 279      59.273  21.559  81.198  1.00 29.24     0.031 C 
ENDROOT
END_RES ALA A 279
ENDMDL
MODEL 17
REMARK VINA RESULT:    -4.662      1.411      1.796
REMARK INTER + INTRA:         -13.648
REMARK INTER:                  -6.958
REMARK INTRA:                  -6.690
REMARK UNBOUND:                -7.078
REMARK SMILES C=CCOC(=O)C1=CS[C@H]2[C@@H]([C@@H](C)OC(C)=O)C(=O)N12
REMARK SMILES IDX 9 1 19 2 20 3 11 4 10 5 18 6 7 7 8 8 12 9 13 10 14 11 15 12
REMARK SMILES IDX 17 13 16 14 5 15 6 16 4 17 3 18 2 19 1 20
REMARK H PARENT
REMARK Flexibility Score: inf
ROOT
ATOM      1  S   UNL     1      62.330  23.394  78.995  1.00  0.00    -0.105 SA
ATOM      2  O   UNL     1      66.803  23.930  79.280  1.00  0.00    -0.274 OA
ATOM      3  N   UNL     1      64.805  22.717  79.617  1.00  0.00    -0.291 N 
ATOM      4  C   UNL     1      64.888  23.419  77.660  1.00  0.00     0.153 C 
ATOM      5  C   UNL     1      63.890  22.572  78.469  1.00  0.00     0.169 C 
ATOM      6  C   UNL     1      65.759  23.421  78.940  1.00  0.00     0.238 C 
ATOM      7  C   UNL     1      64.184  23.138  80.761  1.00  0.00     0.137 C 
ATOM      8  C   UNL     1      62.899  23.493  80.638  1.00  0.00     0.077 C 
ENDROOT
BRANCH   4   9
ATOM      9  C   UNL     1      64.383  24.781  77.248  1.00  0.00     0.189 C 
ATOM     10  C   UNL     1      65.465  25.842  77.406  1.00  0.00     0.054 C 
BRANCH   9  11
ATOM     11  O   UNL     1      63.967  24.740  75.882  1.00  0.00    -0.462 OA
BRANCH  11  12
ATOM     12  C   UNL     1      62.618  24.734  75.677  1.00  0.00     0.302 C 
ATOM     13  O   UNL     1      61.825  25.590  76.046  1.00  0.00    -0.253 OA
ATOM     14  C   UNL     1      62.228  23.504  74.915  1.00  0.00     0.139 C 
ENDBRANCH  11  12
ENDBRANCH   9  11
ENDBRANCH   4   9
BRANCH   7  15
ATOM     15  C   UNL     1      64.913  23.264  82.015  1.00  0.00     0.355 C 
ATOM     16  O   UNL     1      65.460  24.295  82.388  1.00  0.00    -0.244 OA
BRANCH  15  17
ATOM     17  O   UNL     1      64.877  22.073  82.671  1.00  0.00    -0.457 OA
BRANCH  17  18
ATOM     18  C   UNL     1      64.922  22.149  84.099  1.00  0.00     0.260 C 
BRANCH  18  19
ATOM     19  C   UNL     1      63.526  22.111  84.627  1.00  0.00     0.006 C 
ATOM     20  C   UNL     1      62.479  21.644  83.937  1.00  0.00     0.007 C 
ENDBRANCH  18  19
ENDBRANCH  17  18
ENDBRANCH  15  17
ENDBRANCH   7  15
TORSDOF 7
BEGIN_RES SER A  90
REMARK  2 active torsions:
REMARK  status: ('A' for Active; 'I' for Inactive)
REMARK    1  A    between atoms: CA   and  CB  
REMARK    2  A    between atoms: CB   and  OG  
ROOT
ATOM      1  CA  SER A  90      64.797  27.426  83.208  1.00 28.94     0.292 C 
ENDROOT
BRANCH   1   2
ATOM      2  CB  SER A  90      64.021  26.161  83.621  1.00 29.63     0.194 C 
BRANCH   2   3
ATOM      3  OG  SER A  90      64.546  25.561  84.792  1.00 30.29    -0.550 OA
ATOM      4  HG  SER A  90      64.500  24.613  84.767  1.00  0.00     0.310 HD
ENDBRANCH   2   3
ENDBRANCH   1   2
END_RES SER A  90
BEGIN_RES SER A  88
REMARK  2 active torsions:
REMARK  status: ('A' for Active; 'I' for Inactive)
REMARK    3  A    between atoms: CA   and  CB  
REMARK    4  A    between atoms: CB   and  OG  
ROOT
ATOM      5  CA  SER A  88      69.162  24.022  82.855  1.00 38.41     0.292 C 
ENDROOT
BRANCH   5   6
ATOM      6  CB  SER A  88      67.754  23.445  82.669  1.00 37.99     0.194 C 
BRANCH   6   7
ATOM      7  OG  SER A  88      67.756  22.361  81.759  1.00 37.76    -0.550 OA
ATOM      8  HG  SER A  88      67.935  22.652  80.872  1.00  0.00     0.310 HD
ENDBRANCH   6   7
ENDBRANCH   5   6
END_RES SER A  88
BEGIN_RES TYR A 143
REMARK  3 active torsions:
REMARK  status: ('A' for Active; 'I' for Inactive)
REMARK    5  A    between atoms: CA   and  CB  
REMARK    6  A    between atoms: CB   and  CG  
REMARK    7  A    between atoms: CZ   and  OH  
ROOT
ATOM      9  CA  TYR A 143      64.264  20.095  89.524  1.00 42.38     0.245 C 
ENDROOT
BRANCH   9  10
ATOM     10  CB  TYR A 143      62.885  20.126  88.852  1.00 47.73     0.022 C 
BRANCH  10  11
ATOM     11  CG  TYR A 143      62.809  19.464  87.498  1.00 52.08    -0.001 A 
ATOM     12  CD1 TYR A 143      63.962  19.140  86.786  1.00 55.58    -0.035 A 
ATOM     13  CE1 TYR A 143      63.890  18.506  85.542  1.00 58.22     0.100 A 
ATOM     14  CZ  TYR A 143      62.651  18.196  85.005  1.00 60.58    -0.121 A 
ATOM     15  CE2 TYR A 143      61.491  18.512  85.694  1.00 60.07     0.100 A 
ATOM     16  CD2 TYR A 143      61.578  19.142  86.935  1.00 56.72    -0.035 A 
BRANCH  14  17
ATOM     17  OH  TYR A 143      62.562  17.568  83.781  1.00 63.91    -0.368 OA
ATOM     18  HH  TYR A 143      61.715  17.421  83.379  1.00  0.00     0.339 HD
ENDBRANCH  14  17
ENDBRANCH  10  11
ENDBRANCH   9  10
END_RES TYR A 143
BEGIN_RES LYS A 145
REMARK  5 active torsions:
REMARK  status: ('A' for Active; 'I' for Inactive)
REMARK    8  A    between atoms: CA   and  CB  
REMARK    9  A    between atoms: CB   and  CG  
REMARK   10  A    between atoms: CG   and  CD  
REMARK   11  A    between atoms: CD   and  CE  
REMARK   12  A    between atoms: CE   and  NZ  
ROOT
ATOM     19  CA  LYS A 145      61.782  26.240  90.241  1.00 28.09     0.227 C 
ENDROOT
BRANCH  19  20
ATOM     20  CB  LYS A 145      60.456  25.589  89.829  1.00 28.44     0.039 C 
BRANCH  20  21
ATOM     21  CG  LYS A 145      60.256  25.420  88.332  1.00 31.62     0.053 C 
BRANCH  21  22
ATOM     22  CD  LYS A 145      60.448  23.975  87.885  1.00 34.02     0.048 C 
BRANCH  22  23
ATOM     23  CE  LYS A 145      61.008  23.931  86.470  1.00 33.58     0.218 C 
BRANCH  23  24
ATOM     24  NZ  LYS A 145      61.862  25.091  86.167  1.00 36.75    -0.272 N 
ATOM     25  HZ3 LYS A 145      62.784  24.990  86.593  1.00  0.00     0.311 HD
ATOM     26  HZ2 LYS A 145      62.136  25.100  85.185  1.00  0.00     0.311 HD
ATOM     27  HZ1 LYS A 145      61.428  25.974  86.436  1.00  0.00     0.311 HD
ENDBRANCH  23  24
ENDBRANCH  22  23
ENDBRANCH  21  22
ENDBRANCH  20  21
ENDBRANCH  19  20
END_RES LYS A 145
BEGIN_RES ALA A 279
REMARK  0 active torsions:
REMARK  status: ('A' for Active; 'I' for Inactive)
ROOT
ATOM     28  CA  ALA A 279      58.677  22.867  81.738  1.00 30.95     0.215 C 
ATOM     29  CB  ALA A 279      59.273  21.559  81.198  1.00 29.24     0.031 C 
ENDROOT
END_RES ALA A 279
ENDMDL
MODEL 18
REMARK VINA RESULT:    -4.624      5.366      7.230
REMARK INTER + INTRA:         -13.594
REMARK INTER:                  -6.232
REMARK INTRA:                  -7.362
REMARK UNBOUND:                -7.078
REMARK SMILES C=CCOC(=O)C1=CS[C@H]2[C@@H]([C@@H](C)OC(C)=O)C(=O)N12
REMARK SMILES IDX 9 1 19 2 20 3 11 4 10 5 18 6 7 7 8 8 12 9 13 10 14 11 15 12
REMARK SMILES IDX 17 13 16 14 5 15 6 16 4 17 3 18 2 19 1 20
REMARK H PARENT
REMARK Flexibility Score: inf
ROOT
ATOM      1  S   UNL     1      58.001  28.309  73.169  1.00  0.00    -0.105 SA
ATOM      2  O   UNL     1      59.394  24.187  74.371  1.00  0.00    -0.274 OA
ATOM      3  N   UNL     1      57.781  25.706  73.553  1.00  0.00    -0.291 N 
ATOM      4  C   UNL     1      59.584  25.978  72.551  1.00  0.00     0.153 C 
ATOM      5  C   UNL     1      58.188  26.619  72.468  1.00  0.00     0.169 C 
ATOM      6  C   UNL     1      58.979  25.055  73.637  1.00  0.00     0.238 C 
ATOM      7  C   UNL     1      57.157  26.339  74.593  1.00  0.00     0.137 C 
ATOM      8  C   UNL     1      57.142  27.677  74.547  1.00  0.00     0.077 C 
ENDROOT
BRANCH   4   9
ATOM      9  C   UNL     1      60.678  26.893  73.050  1.00  0.00     0.189 C 
ATOM     10  C   UNL     1      61.882  26.097  73.540  1.00  0.00     0.054 C 
BRANCH   9  11
ATOM     11  O   UNL     1      61.091  27.759  71.992  1.00  0.00    -0.462 OA
BRANCH  11  12
ATOM     12  C   UNL     1      62.057  28.666  72.318  1.00  0.00     0.302 C 
ATOM     13  O   UNL     1      63.193  28.709  71.866  1.00  0.00    -0.253 OA
ATOM     14  C   UNL     1      61.521  29.632  73.330  1.00  0.00     0.139 C 
ENDBRANCH  11  12
ENDBRANCH   9  11
ENDBRANCH   4   9
BRANCH   7  15
ATOM     15  C   UNL     1      56.618  25.590  75.719  1.00  0.00     0.355 C 
ATOM     16  O   UNL     1      55.883  24.617  75.605  1.00  0.00    -0.244 OA
BRANCH  15  17
ATOM     17  O   UNL     1      57.063  26.149  76.877  1.00  0.00    -0.457 OA
BRANCH  17  18
ATOM     18  C   UNL     1      58.316  25.656  77.363  1.00  0.00     0.260 C 
BRANCH  18  19
ATOM     19  C   UNL     1      58.060  24.475  78.240  1.00  0.00     0.006 C 
ATOM     20  C   UNL     1      58.510  23.242  77.983  1.00  0.00     0.007 C 
ENDBRANCH  18  19
ENDBRANCH  17  18
ENDBRANCH  15  17
ENDBRANCH   7  15
TORSDOF 7
BEGIN_RES SER A  90
REMARK  2 active torsions:
REMARK  status: ('A' for Active; 'I' for Inactive)
REMARK    1  A    between atoms: CA   and  CB  
REMARK    2  A    between atoms: CB   and  OG  
ROOT
ATOM      1  CA  SER A  90      64.797  27.426  83.208  1.00 28.94     0.292 C 
ENDROOT
BRANCH   1   2
ATOM      2  CB  SER A  90      64.021  26.161  83.621  1.00 29.63     0.194 C 
BRANCH   2   3
ATOM      3  OG  SER A  90      63.993  25.184  82.596  1.00 30.29    -0.550 OA
ATOM      4  HG  SER A  90      63.259  25.299  82.004  1.00  0.00     0.310 HD
ENDBRANCH   2   3
ENDBRANCH   1   2
END_RES SER A  90
BEGIN_RES SER A  88
REMARK  2 active torsions:
REMARK  status: ('A' for Active; 'I' for Inactive)
REMARK    3  A    between atoms: CA   and  CB  
REMARK    4  A    between atoms: CB   and  OG  
ROOT
ATOM      5  CA  SER A  88      69.162  24.022  82.855  1.00 38.41     0.292 C 
ENDROOT
BRANCH   5   6
ATOM      6  CB  SER A  88      67.754  23.445  82.669  1.00 37.99     0.194 C 
BRANCH   6   7
ATOM      7  OG  SER A  88      67.787  22.217  81.965  1.00 37.76    -0.550 OA
ATOM      8  HG  SER A  88      67.856  22.356  81.027  1.00  0.00     0.310 HD
ENDBRANCH   6   7
ENDBRANCH   5   6
END_RES SER A  88
BEGIN_RES TYR A 143
REMARK  3 active torsions:
REMARK  status: ('A' for Active; 'I' for Inactive)
REMARK    5  A    between atoms: CA   and  CB  
REMARK    6  A    between atoms: CB   and  CG  
REMARK    7  A    between atoms: CZ   and  OH  
ROOT
ATOM      9  CA  TYR A 143      64.264  20.095  89.524  1.00 42.38     0.245 C 
ENDROOT
BRANCH   9  10
ATOM     10  CB  TYR A 143      62.885  20.126  88.852  1.00 47.73     0.022 C 
BRANCH  10  11
ATOM     11  CG  TYR A 143      62.852  19.657  87.417  1.00 52.08    -0.001 A 
ATOM     12  CD1 TYR A 143      62.172  18.497  87.053  1.00 55.58    -0.035 A 
ATOM     13  CE1 TYR A 143      62.124  18.076  85.721  1.00 58.22     0.100 A 
ATOM     14  CZ  TYR A 143      62.764  18.823  84.745  1.00 60.58    -0.121 A 
ATOM     15  CE2 TYR A 143      63.448  19.979  85.086  1.00 60.07     0.100 A 
ATOM     16  CD2 TYR A 143      63.487  20.388  86.419  1.00 56.72    -0.035 A 
BRANCH  14  17
ATOM     17  OH  TYR A 143      62.722  18.425  83.426  1.00 63.91    -0.368 OA
ATOM     18  HH  TYR A 143      63.495  18.499  82.879  1.00  0.00     0.339 HD
ENDBRANCH  14  17
ENDBRANCH  10  11
ENDBRANCH   9  10
END_RES TYR A 143
BEGIN_RES LYS A 145
REMARK  5 active torsions:
REMARK  status: ('A' for Active; 'I' for Inactive)
REMARK    8  A    between atoms: CA   and  CB  
REMARK    9  A    between atoms: CB   and  CG  
REMARK   10  A    between atoms: CG   and  CD  
REMARK   11  A    between atoms: CD   and  CE  
REMARK   12  A    between atoms: CE   and  NZ  
ROOT
ATOM     19  CA  LYS A 145      61.782  26.240  90.241  1.00 28.09     0.227 C 
ENDROOT
BRANCH  19  20
ATOM     20  CB  LYS A 145      60.456  25.589  89.829  1.00 28.44     0.039 C 
BRANCH  20  21
ATOM     21  CG  LYS A 145      60.275  25.380  88.335  1.00 31.62     0.053 C 
BRANCH  21  22
ATOM     22  CD  LYS A 145      60.336  23.906  87.948  1.00 34.02     0.048 C 
BRANCH  22  23
ATOM     23  CE  LYS A 145      61.330  23.701  86.812  1.00 33.58     0.218 C 
BRANCH  23  24
ATOM     24  NZ  LYS A 145      60.728  23.937  85.490  1.00 36.75    -0.272 N 
ATOM     25  HZ3 LYS A 145      60.231  23.110  85.159  1.00  0.00     0.311 HD
ATOM     26  HZ2 LYS A 145      59.942  24.583  85.554  1.00  0.00     0.311 HD
ATOM     27  HZ1 LYS A 145      61.411  24.255  84.803  1.00  0.00     0.311 HD
ENDBRANCH  23  24
ENDBRANCH  22  23
ENDBRANCH  21  22
ENDBRANCH  20  21
ENDBRANCH  19  20
END_RES LYS A 145
BEGIN_RES ALA A 279
REMARK  0 active torsions:
REMARK  status: ('A' for Active; 'I' for Inactive)
ROOT
ATOM     28  CA  ALA A 279      58.677  22.867  81.738  1.00 30.95     0.215 C 
ATOM     29  CB  ALA A 279      59.273  21.559  81.198  1.00 29.24     0.031 C 
ENDROOT
END_RES ALA A 279
ENDMDL
MODEL 19
REMARK VINA RESULT:    -4.538      2.547      5.270
REMARK INTER + INTRA:         -13.473
REMARK INTER:                  -6.394
REMARK INTRA:                  -7.078
REMARK UNBOUND:                -7.078
REMARK SMILES C=CCOC(=O)C1=CS[C@H]2[C@@H]([C@@H](C)OC(C)=O)C(=O)N12
REMARK SMILES IDX 9 1 19 2 20 3 11 4 10 5 18 6 7 7 8 8 12 9 13 10 14 11 15 12
REMARK SMILES IDX 17 13 16 14 5 15 6 16 4 17 3 18 2 19 1 20
REMARK H PARENT
REMARK Flexibility Score: inf
ROOT
ATOM      1  S   UNL     1      65.821  21.904  77.516  1.00  0.00    -0.105 SA
ATOM      2  O   UNL     1      66.121  24.568  81.147  1.00  0.00    -0.274 OA
ATOM      3  N   UNL     1      66.244  24.158  78.824  1.00  0.00    -0.291 N 
ATOM      4  C   UNL     1      64.469  23.386  79.590  1.00  0.00     0.153 C 
ATOM      5  C   UNL     1      65.108  23.459  78.192  1.00  0.00     0.169 C 
ATOM      6  C   UNL     1      65.706  24.179  80.079  1.00  0.00     0.238 C 
ATOM      7  C   UNL     1      67.462  23.624  78.502  1.00  0.00     0.137 C 
ATOM      8  C   UNL     1      67.439  22.484  77.801  1.00  0.00     0.077 C 
ENDROOT
BRANCH   4   9
ATOM      9  C   UNL     1      64.353  21.995  80.166  1.00  0.00     0.189 C 
ATOM     10  C   UNL     1      64.239  22.035  81.686  1.00  0.00     0.054 C 
BRANCH   9  11
ATOM     11  O   UNL     1      63.196  21.353  79.629  1.00  0.00    -0.462 OA
BRANCH  11  12
ATOM     12  C   UNL     1      63.029  20.046  79.983  1.00  0.00     0.302 C 
ATOM     13  O   UNL     1      62.145  19.597  80.699  1.00  0.00    -0.253 OA
ATOM     14  C   UNL     1      64.106  19.213  79.357  1.00  0.00     0.139 C 
ENDBRANCH  11  12
ENDBRANCH   9  11
ENDBRANCH   4   9
BRANCH   7  15
ATOM     15  C   UNL     1      68.700  24.228  78.972  1.00  0.00     0.355 C 
ATOM     16  O   UNL     1      69.346  23.812  79.927  1.00  0.00    -0.244 OA
BRANCH  15  17
ATOM     17  O   UNL     1      68.998  25.297  78.186  1.00  0.00    -0.457 OA
BRANCH  17  18
ATOM     18  C   UNL     1      69.944  25.056  77.140  1.00  0.00     0.260 C 
BRANCH  18  19
ATOM     19  C   UNL     1      69.279  25.298  75.826  1.00  0.00     0.006 C 
ATOM     20  C   UNL     1      69.158  24.373  74.868  1.00  0.00     0.007 C 
ENDBRANCH  18  19
ENDBRANCH  17  18
ENDBRANCH  15  17
ENDBRANCH   7  15
TORSDOF 7
BEGIN_RES SER A  90
REMARK  2 active torsions:
REMARK  status: ('A' for Active; 'I' for Inactive)
REMARK    1  A    between atoms: CA   and  CB  
REMARK    2  A    between atoms: CB   and  OG  
ROOT
ATOM      1  CA  SER A  90      64.797  27.426  83.208  1.00 28.94     0.292 C 
ENDROOT
BRANCH   1   2
ATOM      2  CB  SER A  90      64.021  26.161  83.621  1.00 29.63     0.194 C 
BRANCH   2   3
ATOM      3  OG  SER A  90      63.750  25.309  82.522  1.00 30.29    -0.550 OA
ATOM      4  HG  SER A  90      63.847  24.389  82.742  1.00  0.00     0.310 HD
ENDBRANCH   2   3
ENDBRANCH   1   2
END_RES SER A  90
BEGIN_RES SER A  88
REMARK  2 active torsions:
REMARK  status: ('A' for Active; 'I' for Inactive)
REMARK    3  A    between atoms: CA   and  CB  
REMARK    4  A    between atoms: CB   and  OG  
ROOT
ATOM      5  CA  SER A  88      69.162  24.022  82.855  1.00 38.41     0.292 C 
ENDROOT
BRANCH   5   6
ATOM      6  CB  SER A  88      67.754  23.445  82.669  1.00 37.99     0.194 C 
BRANCH   6   7
ATOM      7  OG  SER A  88      67.786  22.227  81.948  1.00 37.76    -0.550 OA
ATOM      8  HG  SER A  88      66.912  21.949  81.697  1.00  0.00     0.310 HD
ENDBRANCH   6   7
ENDBRANCH   5   6
END_RES SER A  88
BEGIN_RES TYR A 143
REMARK  3 active torsions:
REMARK  status: ('A' for Active; 'I' for Inactive)
REMARK    5  A    between atoms: CA   and  CB  
REMARK    6  A    between atoms: CB   and  CG  
REMARK    7  A    between atoms: CZ   and  OH  
ROOT
ATOM      9  CA  TYR A 143      64.264  20.095  89.524  1.00 42.38     0.245 C 
ENDROOT
BRANCH   9  10
ATOM     10  CB  TYR A 143      62.885  20.126  88.852  1.00 47.73     0.022 C 
BRANCH  10  11
ATOM     11  CG  TYR A 143      62.867  19.746  87.391  1.00 52.08    -0.001 A 
ATOM     12  CD1 TYR A 143      63.812  20.253  86.502  1.00 55.58    -0.035 A 
ATOM     13  CE1 TYR A 143      63.807  19.883  85.154  1.00 58.22     0.100 A 
ATOM     14  CZ  TYR A 143      62.846  18.999  84.692  1.00 60.58    -0.121 A 
ATOM     15  CE2 TYR A 143      61.895  18.485  85.559  1.00 60.07     0.100 A 
ATOM     16  CD2 TYR A 143      61.912  18.862  86.901  1.00 56.72    -0.035 A 
BRANCH  14  17
ATOM     17  OH  TYR A 143      62.830  18.621  83.366  1.00 63.91    -0.368 OA
ATOM     18  HH  TYR A 143      62.005  18.458  82.924  1.00  0.00     0.339 HD
ENDBRANCH  14  17
ENDBRANCH  10  11
ENDBRANCH   9  10
END_RES TYR A 143
BEGIN_RES LYS A 145
REMARK  5 active torsions:
REMARK  status: ('A' for Active; 'I' for Inactive)
REMARK    8  A    between atoms: CA   and  CB  
REMARK    9  A    between atoms: CB   and  CG  
REMARK   10  A    between atoms: CG   and  CD  
REMARK   11  A    between atoms: CD   and  CE  
REMARK   12  A    between atoms: CE   and  NZ  
ROOT
ATOM     19  CA  LYS A 145      61.782  26.240  90.241  1.00 28.09     0.227 C 
ENDROOT
BRANCH  19  20
ATOM     20  CB  LYS A 145      60.456  25.589  89.829  1.00 28.44     0.039 C 
BRANCH  20  21
ATOM     21  CG  LYS A 145      60.271  25.388  88.334  1.00 31.62     0.053 C 
BRANCH  21  22
ATOM     22  CD  LYS A 145      60.297  23.914  87.945  1.00 34.02     0.048 C 
BRANCH  22  23
ATOM     23  CE  LYS A 145      60.907  23.746  86.559  1.00 33.58     0.218 C 
BRANCH  23  24
ATOM     24  NZ  LYS A 145      60.830  22.357  86.076  1.00 36.75    -0.272 N 
ATOM     25  HZ3 LYS A 145      60.474  22.320  85.121  1.00  0.00     0.311 HD
ATOM     26  HZ2 LYS A 145      61.760  21.971  85.918  1.00  0.00     0.311 HD
ATOM     27  HZ1 LYS A 145      60.284  21.760  86.696  1.00  0.00     0.311 HD
ENDBRANCH  23  24
ENDBRANCH  22  23
ENDBRANCH  21  22
ENDBRANCH  20  21
ENDBRANCH  19  20
END_RES LYS A 145
BEGIN_RES ALA A 279
REMARK  0 active torsions:
REMARK  status: ('A' for Active; 'I' for Inactive)
ROOT
ATOM     28  CA  ALA A 279      58.677  22.867  81.738  1.00 30.95     0.215 C 
ATOM     29  CB  ALA A 279      59.273  21.559  81.198  1.00 29.24     0.031 C 
ENDROOT
END_RES ALA A 279
ENDMDL
MODEL 20
REMARK VINA RESULT:    -4.493      1.922      2.763
REMARK INTER + INTRA:         -13.409
REMARK INTER:                  -7.040
REMARK INTRA:                  -6.369
REMARK UNBOUND:                -7.078
REMARK SMILES C=CCOC(=O)C1=CS[C@H]2[C@@H]([C@@H](C)OC(C)=O)C(=O)N12
REMARK SMILES IDX 9 1 19 2 20 3 11 4 10 5 18 6 7 7 8 8 12 9 13 10 14 11 15 12
REMARK SMILES IDX 17 13 16 14 5 15 6 16 4 17 3 18 2 19 1 20
REMARK H PARENT
REMARK Flexibility Score: inf
ROOT
ATOM      1  S   UNL     1      66.223  25.659  79.081  1.00  0.00    -0.105 SA
ATOM      2  O   UNL     1      64.556  21.633  77.901  1.00  0.00    -0.274 OA
ATOM      3  N   UNL     1      64.397  23.759  78.920  1.00  0.00    -0.291 N 
ATOM      4  C   UNL     1      65.186  23.946  77.003  1.00  0.00     0.153 C 
ATOM      5  C   UNL     1      64.827  24.930  78.131  1.00  0.00     0.169 C 
ATOM      6  C   UNL     1      64.638  22.840  77.938  1.00  0.00     0.238 C 
ATOM      7  C   UNL     1      64.934  23.721  80.178  1.00  0.00     0.137 C 
ATOM      8  C   UNL     1      65.864  24.645  80.451  1.00  0.00     0.077 C 
ENDROOT
BRANCH   4   9
ATOM      9  C   UNL     1      66.661  23.833  76.701  1.00  0.00     0.189 C 
ATOM     10  C   UNL     1      66.964  22.575  75.894  1.00  0.00     0.054 C 
BRANCH   9  11
ATOM     11  O   UNL     1      67.083  24.976  75.958  1.00  0.00    -0.462 OA
BRANCH  11  12
ATOM     12  C   UNL     1      68.414  25.029  75.663  1.00  0.00     0.302 C 
ATOM     13  O   UNL     1      68.908  25.055  74.544  1.00  0.00    -0.253 OA
ATOM     14  C   UNL     1      69.212  25.053  76.931  1.00  0.00     0.139 C 
ENDBRANCH  11  12
ENDBRANCH   9  11
ENDBRANCH   4   9
BRANCH   7  15
ATOM     15  C   UNL     1      64.565  22.680  81.127  1.00  0.00     0.355 C 
ATOM     16  O   UNL     1      64.671  21.480  80.902  1.00  0.00    -0.244 OA
BRANCH  15  17
ATOM     17  O   UNL     1      64.099  23.262  82.264  1.00  0.00    -0.457 OA
BRANCH  17  18
ATOM     18  C   UNL     1      62.771  22.895  82.651  1.00  0.00     0.260 C 
BRANCH  18  19
ATOM     19  C   UNL     1      62.847  22.012  83.852  1.00  0.00     0.006 C 
ATOM     20  C   UNL     1      63.837  22.056  84.750  1.00  0.00     0.007 C 
ENDBRANCH  18  19
ENDBRANCH  17  18
ENDBRANCH  15  17
ENDBRANCH   7  15
TORSDOF 7
BEGIN_RES SER A  90
REMARK  2 active torsions:
REMARK  status: ('A' for Active; 'I' for Inactive)
REMARK    1  A    between atoms: CA   and  CB  
REMARK    2  A    between atoms: CB   and  OG  
ROOT
ATOM      1  CA  SER A  90      64.797  27.426  83.208  1.00 28.94     0.292 C 
ENDROOT
BRANCH   1   2
ATOM      2  CB  SER A  90      64.021  26.161  83.621  1.00 29.63     0.194 C 
BRANCH   2   3
ATOM      3  OG  SER A  90      64.731  25.372  84.559  1.00 30.29    -0.550 OA
ATOM      4  HG  SER A  90      65.667  25.534  84.536  1.00  0.00     0.310 HD
ENDBRANCH   2   3
ENDBRANCH   1   2
END_RES SER A  90
BEGIN_RES SER A  88
REMARK  2 active torsions:
REMARK  status: ('A' for Active; 'I' for Inactive)
REMARK    3  A    between atoms: CA   and  CB  
REMARK    4  A    between atoms: CB   and  OG  
ROOT
ATOM      5  CA  SER A  88      69.162  24.022  82.855  1.00 38.41     0.292 C 
ENDROOT
BRANCH   5   6
ATOM      6  CB  SER A  88      67.754  23.445  82.669  1.00 37.99     0.194 C 
BRANCH   6   7
ATOM      7  OG  SER A  88      66.850  23.971  83.623  1.00 37.76    -0.550 OA
ATOM      8  HG  SER A  88      67.306  24.299  84.390  1.00  0.00     0.310 HD
ENDBRANCH   6   7
ENDBRANCH   5   6
END_RES SER A  88
BEGIN_RES TYR A 143
REMARK  3 active torsions:
REMARK  status: ('A' for Active; 'I' for Inactive)
REMARK    5  A    between atoms: CA   and  CB  
REMARK    6  A    between atoms: CB   and  CG  
REMARK    7  A    between atoms: CZ   and  OH  
ROOT
ATOM      9  CA  TYR A 143      64.264  20.095  89.524  1.00 42.38     0.245 C 
ENDROOT
BRANCH   9  10
ATOM     10  CB  TYR A 143      62.885  20.126  88.852  1.00 47.73     0.022 C 
BRANCH  10  11
ATOM     11  CG  TYR A 143      62.817  19.498  87.481  1.00 52.08    -0.001 A 
ATOM     12  CD1 TYR A 143      61.601  19.327  86.824  1.00 55.58    -0.035 A 
ATOM     13  CE1 TYR A 143      61.542  18.766  85.546  1.00 58.22     0.100 A 
ATOM     14  CZ  TYR A 143      62.713  18.369  84.920  1.00 60.58    -0.121 A 
ATOM     15  CE2 TYR A 143      63.933  18.527  85.556  1.00 60.07     0.100 A 
ATOM     16  CD2 TYR A 143      63.978  19.090  86.831  1.00 56.72    -0.035 A 
BRANCH  14  17
ATOM     17  OH  TYR A 143      62.673  17.818  83.657  1.00 63.91    -0.368 OA
ATOM     18  HH  TYR A 143      63.380  17.260  83.355  1.00  0.00     0.339 HD
ENDBRANCH  14  17
ENDBRANCH  10  11
ENDBRANCH   9  10
END_RES TYR A 143
BEGIN_RES LYS A 145
REMARK  5 active torsions:
REMARK  status: ('A' for Active; 'I' for Inactive)
REMARK    8  A    between atoms: CA   and  CB  
REMARK    9  A    between atoms: CB   and  CG  
REMARK   10  A    between atoms: CG   and  CD  
REMARK   11  A    between atoms: CD   and  CE  
REMARK   12  A    between atoms: CE   and  NZ  
ROOT
ATOM     19  CA  LYS A 145      61.782  26.240  90.241  1.00 28.09     0.227 C 
ENDROOT
BRANCH  19  20
ATOM     20  CB  LYS A 145      60.456  25.589  89.829  1.00 28.44     0.039 C 
BRANCH  20  21
ATOM     21  CG  LYS A 145      60.264  25.403  88.333  1.00 31.62     0.053 C 
BRANCH  21  22
ATOM     22  CD  LYS A 145      60.128  23.933  87.949  1.00 34.02     0.048 C 
BRANCH  22  23
ATOM     23  CE  LYS A 145      61.092  23.591  86.822  1.00 33.58     0.218 C 
BRANCH  23  24
ATOM     24  NZ  LYS A 145      60.880  24.426  85.628  1.00 36.75    -0.272 N 
ATOM     25  HZ3 LYS A 145      60.594  23.859  84.829  1.00  0.00     0.311 HD
ATOM     26  HZ2 LYS A 145      60.044  25.002  85.726  1.00  0.00     0.311 HD
ATOM     27  HZ1 LYS A 145      61.694  24.996  85.401  1.00  0.00     0.311 HD
ENDBRANCH  23  24
ENDBRANCH  22  23
ENDBRANCH  21  22
ENDBRANCH  20  21
ENDBRANCH  19  20
END_RES LYS A 145
BEGIN_RES ALA A 279
REMARK  0 active torsions:
REMARK  status: ('A' for Active; 'I' for Inactive)
ROOT
ATOM     28  CA  ALA A 279      58.677  22.867  81.738  1.00 30.95     0.215 C 
ATOM     29  CB  ALA A 279      59.273  21.559  81.198  1.00 29.24     0.031 C 
ENDROOT
END_RES ALA A 279
ENDMDL
