MODEL 1
REMARK VINA RESULT:    -6.697      0.000      0.000
REMARK INTER + INTRA:          -8.414
REMARK INTER:                  -8.010
REMARK INTRA:                  -0.404
REMARK UNBOUND:                -0.543
REMARK SMILES O=C(Nc1ccc2c(c1)OC(F)(F)O2)Nc1ccc(Cl)c(C(F)(F)F)c1
REMARK SMILES IDX 20 1 16 2 21 3 26 4 17 5 19 6 18 7 22 8 23 9 24 10 25 11
REMARK SMILES IDX 15 12 2 13 1 15 3 16 4 18 9 19 5 20 8 21 6 22 10 23 7 24
REMARK SMILES IDX 11 25 14 26 12 27 13 28
REMARK H PARENT 15 14 3 17
REMARK Flexibility Score: inf
ROOT
ATOM      1  Cl  UNL     1     102.005  -8.608  21.356  1.00  0.00    -0.084 Cl
ATOM      2  C   UNL     1      98.370 -10.878  22.774  1.00  0.00     0.043 A 
ATOM      3  C   UNL     1      99.980  -9.109  23.108  1.00  0.00     0.076 A 
ATOM      4  C   UNL     1      98.856  -9.816  23.536  1.00  0.00    -0.025 A 
ATOM      5  C   UNL     1      99.006 -11.232  21.584  1.00  0.00    -0.037 A 
ATOM      6  C   UNL     1     100.616  -9.462  21.919  1.00  0.00     0.053 A 
ATOM      7  C   UNL     1     100.129 -10.524  21.155  1.00  0.00    -0.041 A 
ENDROOT
BRANCH   3   8
ATOM      8  C   UNL     1     100.469  -7.975  23.951  1.00  0.00     0.417 C 
ATOM      9  F   UNL     1      99.805  -7.885  25.139  1.00  0.00    -0.166 F 
ATOM     10  F   UNL     1     101.792  -8.070  24.275  1.00  0.00    -0.166 F 
ATOM     11  F   UNL     1     100.331  -6.755  23.357  1.00  0.00    -0.166 F 
ENDBRANCH   3   8
BRANCH   2  12
ATOM     12  N   UNL     1      97.231 -11.598  23.209  1.00  0.00    -0.308 N 
ATOM     13  C   UNL     1      96.040 -11.839  22.505  1.00  0.00     0.323 C 
ATOM     14  H   UNL     1      97.292 -11.984  24.147  1.00  0.00     0.171 HD
ATOM     15  O   UNL     1      95.798 -11.449  21.367  1.00  0.00    -0.248 OA
ATOM     16  N   UNL     1      95.154 -12.602  23.303  1.00  0.00    -0.308 N 
ATOM     17  H   UNL     1      95.492 -12.853  24.228  1.00  0.00     0.171 HD
BRANCH  16  18
ATOM     18  C   UNL     1      93.872 -13.058  22.988  1.00  0.00     0.046 A 
ATOM     19  C   UNL     1      92.756 -12.335  23.416  1.00  0.00     0.008 A 
ATOM     20  C   UNL     1      93.717 -14.241  22.245  1.00  0.00    -0.035 A 
ATOM     21  C   UNL     1      91.510 -12.823  23.082  1.00  0.00     0.174 A 
ATOM     22  C   UNL     1      92.444 -14.715  21.919  1.00  0.00    -0.014 A 
ATOM     23  O   UNL     1      90.317 -12.256  23.409  1.00  0.00    -0.395 OA
ATOM     24  C   UNL     1      91.358 -13.982  22.353  1.00  0.00     0.172 A 
ATOM     25  C   UNL     1      89.413 -13.192  22.804  1.00  0.00     0.586 C 
ATOM     26  O   UNL     1      90.050 -14.288  22.131  1.00  0.00    -0.395 OA
ATOM     27  F   UNL     1      88.634 -12.529  21.913  1.00  0.00    -0.125 F 
ATOM     28  F   UNL     1      88.597 -13.691  23.766  1.00  0.00    -0.125 F 
ENDBRANCH  16  18
ENDBRANCH   2  12
TORSDOF 3
ENDMDL
MODEL 2
REMARK VINA RESULT:    -6.479      1.952      2.451
REMARK INTER + INTRA:          -8.158
REMARK INTER:                  -7.755
REMARK INTRA:                  -0.403
REMARK UNBOUND:                -0.543
REMARK SMILES O=C(Nc1ccc2c(c1)OC(F)(F)O2)Nc1ccc(Cl)c(C(F)(F)F)c1
REMARK SMILES IDX 20 1 16 2 21 3 26 4 17 5 19 6 18 7 22 8 23 9 24 10 25 11
REMARK SMILES IDX 15 12 2 13 1 15 3 16 4 18 9 19 5 20 8 21 6 22 10 23 7 24
REMARK SMILES IDX 11 25 14 26 12 27 13 28
REMARK H PARENT 15 14 3 17
REMARK Flexibility Score: inf
ROOT
ATOM      1  Cl  UNL     1     101.413  -8.483  21.942  1.00  0.00    -0.084 Cl
ATOM      2  C   UNL     1      97.644 -10.668  23.126  1.00  0.00     0.043 A 
ATOM      3  C   UNL     1      99.674 -10.577  21.819  1.00  0.00     0.076 A 
ATOM      4  C   UNL     1      98.507 -11.244  22.194  1.00  0.00    -0.025 A 
ATOM      5  C   UNL     1      97.948  -9.426  23.684  1.00  0.00    -0.037 A 
ATOM      6  C   UNL     1      99.978  -9.336  22.377  1.00  0.00     0.053 A 
ATOM      7  C   UNL     1      99.114  -8.760  23.311  1.00  0.00    -0.041 A 
ENDROOT
BRANCH   3   8
ATOM      8  C   UNL     1     100.574 -11.228  20.819  1.00  0.00     0.417 C 
ATOM      9  F   UNL     1     100.098 -12.435  20.397  1.00  0.00    -0.166 F 
ATOM     10  F   UNL     1     100.755 -10.487  19.687  1.00  0.00    -0.166 F 
ATOM     11  F   UNL     1     101.829 -11.471  21.294  1.00  0.00    -0.166 F 
ENDBRANCH   3   8
BRANCH   2  12
ATOM     12  N   UNL     1      96.459 -11.343  23.504  1.00  0.00    -0.308 N 
ATOM     13  C   UNL     1      95.443 -11.839  22.671  1.00  0.00     0.323 C 
ATOM     14  H   UNL     1      96.336 -11.481  24.504  1.00  0.00     0.171 HD
ATOM     15  O   UNL     1      95.429 -11.761  21.447  1.00  0.00    -0.248 OA
ATOM     16  N   UNL     1      94.432 -12.449  23.453  1.00  0.00    -0.308 N 
ATOM     17  H   UNL     1      94.580 -12.438  24.459  1.00  0.00     0.171 HD
BRANCH  16  18
ATOM     18  C   UNL     1      93.254 -13.064  23.026  1.00  0.00     0.046 A 
ATOM     19  C   UNL     1      92.031 -12.413  23.201  1.00  0.00     0.008 A 
ATOM     20  C   UNL     1      93.310 -14.334  22.426  1.00  0.00    -0.035 A 
ATOM     21  C   UNL     1      90.893 -13.059  22.764  1.00  0.00     0.174 A 
ATOM     22  C   UNL     1      92.144 -14.968  21.991  1.00  0.00    -0.014 A 
ATOM     23  O   UNL     1      89.621 -12.582  22.849  1.00  0.00    -0.395 OA
ATOM     24  C   UNL     1      90.948 -14.303  22.174  1.00  0.00     0.172 A 
ATOM     25  C   UNL     1      88.898 -13.668  22.250  1.00  0.00     0.586 C 
ATOM     26  O   UNL     1      89.717 -14.763  21.816  1.00  0.00    -0.395 OA
ATOM     27  F   UNL     1      88.208 -13.192  21.183  1.00  0.00    -0.125 F 
ATOM     28  F   UNL     1      87.993 -14.132  23.147  1.00  0.00    -0.125 F 
ENDBRANCH  16  18
ENDBRANCH   2  12
TORSDOF 3
ENDMDL
MODEL 3
REMARK VINA RESULT:    -6.412      3.345      9.699
REMARK INTER + INTRA:          -8.079
REMARK INTER:                  -8.004
REMARK INTRA:                  -0.075
REMARK UNBOUND:                -0.543
REMARK SMILES O=C(Nc1ccc2c(c1)OC(F)(F)O2)Nc1ccc(Cl)c(C(F)(F)F)c1
REMARK SMILES IDX 20 1 16 2 21 3 26 4 17 5 19 6 18 7 22 8 23 9 24 10 25 11
REMARK SMILES IDX 15 12 2 13 1 15 3 16 4 18 9 19 5 20 8 21 6 22 10 23 7 24
REMARK SMILES IDX 11 25 14 26 12 27 13 28
REMARK H PARENT 15 14 3 17
REMARK Flexibility Score: inf
ROOT
ATOM      1  Cl  UNL     1      89.497 -15.526  21.741  1.00  0.00    -0.084 Cl
ATOM      2  C   UNL     1      93.184 -13.304  23.102  1.00  0.00     0.043 A 
ATOM      3  C   UNL     1      90.784 -13.577  23.144  1.00  0.00     0.076 A 
ATOM      4  C   UNL     1      91.930 -12.899  23.560  1.00  0.00    -0.025 A 
ATOM      5  C   UNL     1      93.291 -14.387  22.230  1.00  0.00    -0.037 A 
ATOM      6  C   UNL     1      90.891 -14.660  22.273  1.00  0.00     0.053 A 
ATOM      7  C   UNL     1      92.146 -15.067  21.816  1.00  0.00    -0.041 A 
ENDROOT
BRANCH   3   8
ATOM      8  C   UNL     1      89.459 -13.114  23.659  1.00  0.00     0.417 C 
ATOM      9  F   UNL     1      89.571 -12.052  24.508  1.00  0.00    -0.166 F 
ATOM     10  F   UNL     1      88.605 -12.708  22.674  1.00  0.00    -0.166 F 
ATOM     11  F   UNL     1      88.779 -14.071  24.352  1.00  0.00    -0.166 F 
ENDBRANCH   3   8
BRANCH   2  12
ATOM     12  N   UNL     1      94.347 -12.615  23.521  1.00  0.00    -0.308 N 
ATOM     13  C   UNL     1      95.361 -12.064  22.721  1.00  0.00     0.323 C 
ATOM     14  H   UNL     1      94.452 -12.511  24.527  1.00  0.00     0.171 HD
ATOM     15  O   UNL     1      95.393 -12.097  21.495  1.00  0.00    -0.248 OA
ATOM     16  N   UNL     1      96.346 -11.459  23.538  1.00  0.00    -0.308 N 
ATOM     17  H   UNL     1      96.185 -11.510  24.541  1.00  0.00     0.171 HD
BRANCH  16  18
ATOM     18  C   UNL     1      97.514 -10.801  23.151  1.00  0.00     0.046 A 
ATOM     19  C   UNL     1      97.934  -9.666  23.850  1.00  0.00     0.008 A 
ATOM     20  C   UNL     1      98.257 -11.285  22.060  1.00  0.00    -0.035 A 
ATOM     21  C   UNL     1      99.094  -9.049  23.431  1.00  0.00     0.174 A 
ATOM     22  C   UNL     1      99.429 -10.642  21.655  1.00  0.00    -0.014 A 
ATOM     23  O   UNL     1      99.653  -7.939  23.987  1.00  0.00    -0.395 OA
ATOM     24  C   UNL     1      99.823  -9.524  22.363  1.00  0.00     0.172 A 
ATOM     25  C   UNL     1     100.805  -7.782  23.145  1.00  0.00     0.586 C 
ATOM     26  O   UNL     1     100.931  -8.772  22.114  1.00  0.00    -0.395 OA
ATOM     27  F   UNL     1     101.917  -7.818  23.920  1.00  0.00    -0.125 F 
ATOM     28  F   UNL     1     100.752  -6.557  22.564  1.00  0.00    -0.125 F 
ENDBRANCH  16  18
ENDBRANCH   2  12
TORSDOF 3
ENDMDL
MODEL 4
REMARK VINA RESULT:    -6.404     18.541     19.508
REMARK INTER + INTRA:          -8.069
REMARK INTER:                  -7.683
REMARK INTRA:                  -0.387
REMARK UNBOUND:                -0.543
REMARK SMILES O=C(Nc1ccc2c(c1)OC(F)(F)O2)Nc1ccc(Cl)c(C(F)(F)F)c1
REMARK SMILES IDX 20 1 16 2 21 3 26 4 17 5 19 6 18 7 22 8 23 9 24 10 25 11
REMARK SMILES IDX 15 12 2 13 1 15 3 16 4 18 9 19 5 20 8 21 6 22 10 23 7 24
REMARK SMILES IDX 11 25 14 26 12 27 13 28
REMARK H PARENT 15 14 3 17
REMARK Flexibility Score: inf
ROOT
ATOM      1  Cl  UNL     1     103.220   8.948  24.702  1.00  0.00    -0.084 Cl
ATOM      2  C   UNL     1      98.774   8.986  23.919  1.00  0.00     0.043 A 
ATOM      3  C   UNL     1     101.000   8.333  23.247  1.00  0.00     0.076 A 
ATOM      4  C   UNL     1      99.625   8.349  23.016  1.00  0.00    -0.025 A 
ATOM      5  C   UNL     1      99.298   9.604  25.054  1.00  0.00    -0.037 A 
ATOM      6  C   UNL     1     101.525   8.951  24.381  1.00  0.00     0.053 A 
ATOM      7  C   UNL     1     100.673   9.587  25.286  1.00  0.00    -0.041 A 
ENDROOT
BRANCH   3   8
ATOM      8  C   UNL     1     101.878   7.638  22.256  1.00  0.00     0.417 C 
ATOM      9  F   UNL     1     102.685   6.705  22.838  1.00  0.00    -0.166 F 
ATOM     10  F   UNL     1     101.184   6.971  21.288  1.00  0.00    -0.166 F 
ATOM     11  F   UNL     1     102.713   8.481  21.583  1.00  0.00    -0.166 F 
ENDBRANCH   3   8
BRANCH   2  12
ATOM     12  N   UNL     1      97.378   9.004  23.684  1.00  0.00    -0.308 N 
ATOM     13  C   UNL     1      96.365   8.397  24.444  1.00  0.00     0.323 C 
ATOM     14  H   UNL     1      97.082   9.523  22.861  1.00  0.00     0.171 HD
ATOM     15  O   UNL     1      96.542   7.736  25.462  1.00  0.00    -0.248 OA
ATOM     16  N   UNL     1      95.101   8.661  23.862  1.00  0.00    -0.308 N 
ATOM     17  H   UNL     1      95.110   9.224  23.016  1.00  0.00     0.171 HD
BRANCH  16  18
ATOM     18  C   UNL     1      93.840   8.247  24.295  1.00  0.00     0.046 A 
ATOM     19  C   UNL     1      93.066   7.418  23.480  1.00  0.00     0.008 A 
ATOM     20  C   UNL     1      93.361   8.671  25.547  1.00  0.00    -0.035 A 
ATOM     21  C   UNL     1      91.827   7.036  23.950  1.00  0.00     0.174 A 
ATOM     22  C   UNL     1      92.103   8.270  26.001  1.00  0.00    -0.014 A 
ATOM     23  O   UNL     1      90.939   6.235  23.299  1.00  0.00    -0.395 OA
ATOM     24  C   UNL     1      91.357   7.450  25.177  1.00  0.00     0.172 A 
ATOM     25  C   UNL     1      89.871   6.202  24.258  1.00  0.00     0.586 C 
ATOM     26  O   UNL     1      90.116   6.961  25.450  1.00  0.00    -0.395 OA
ATOM     27  F   UNL     1      89.640   4.911  24.605  1.00  0.00    -0.125 F 
ATOM     28  F   UNL     1      88.745   6.674  23.668  1.00  0.00    -0.125 F 
ENDBRANCH  16  18
ENDBRANCH   2  12
TORSDOF 3
ENDMDL
MODEL 5
REMARK VINA RESULT:    -6.392      3.553      9.576
REMARK INTER + INTRA:          -8.056
REMARK INTER:                  -7.756
REMARK INTRA:                  -0.299
REMARK UNBOUND:                -0.543
REMARK SMILES O=C(Nc1ccc2c(c1)OC(F)(F)O2)Nc1ccc(Cl)c(C(F)(F)F)c1
REMARK SMILES IDX 20 1 16 2 21 3 26 4 17 5 19 6 18 7 22 8 23 9 24 10 25 11
REMARK SMILES IDX 15 12 2 13 1 15 3 16 4 18 9 19 5 20 8 21 6 22 10 23 7 24
REMARK SMILES IDX 11 25 14 26 12 27 13 28
REMARK H PARENT 15 14 3 17
REMARK Flexibility Score: inf
ROOT
ATOM      1  Cl  UNL     1      91.501 -15.385  21.440  1.00  0.00    -0.084 Cl
ATOM      2  C   UNL     1      95.102 -13.282  23.171  1.00  0.00     0.043 A 
ATOM      3  C   UNL     1      92.706 -13.417  22.889  1.00  0.00     0.076 A 
ATOM      4  C   UNL     1      93.826 -12.776  23.420  1.00  0.00    -0.025 A 
ATOM      5  C   UNL     1      95.258 -14.428  22.393  1.00  0.00    -0.037 A 
ATOM      6  C   UNL     1      92.862 -14.563  22.111  1.00  0.00     0.053 A 
ATOM      7  C   UNL     1      94.139 -15.070  21.862  1.00  0.00    -0.041 A 
ENDROOT
BRANCH   3   8
ATOM      8  C   UNL     1      91.356 -12.845  23.180  1.00  0.00     0.417 C 
ATOM      9  F   UNL     1      90.610 -13.653  23.987  1.00  0.00    -0.166 F 
ATOM     10  F   UNL     1      91.403 -11.636  23.813  1.00  0.00    -0.166 F 
ATOM     11  F   UNL     1      90.600 -12.637  22.065  1.00  0.00    -0.166 F 
ENDBRANCH   3   8
BRANCH   2  12
ATOM     12  N   UNL     1      96.238 -12.631  23.708  1.00  0.00    -0.308 N 
ATOM     13  C   UNL     1      96.861 -11.460  23.247  1.00  0.00     0.323 C 
ATOM     14  H   UNL     1      96.647 -13.073  24.527  1.00  0.00     0.171 HD
ATOM     15  O   UNL     1      96.503 -10.801  22.276  1.00  0.00    -0.248 OA
ATOM     16  N   UNL     1      97.970 -11.147  24.070  1.00  0.00    -0.308 N 
ATOM     17  H   UNL     1      98.147 -11.787  24.840  1.00  0.00     0.171 HD
BRANCH  16  18
ATOM     18  C   UNL     1      98.856 -10.074  23.966  1.00  0.00     0.046 A 
ATOM     19  C   UNL     1      99.194  -9.341  25.106  1.00  0.00     0.008 A 
ATOM     20  C   UNL     1      99.400  -9.739  22.713  1.00  0.00    -0.035 A 
ATOM     21  C   UNL     1     100.074  -8.289  24.954  1.00  0.00     0.174 A 
ATOM     22  C   UNL     1     100.289  -8.670  22.585  1.00  0.00    -0.014 A 
ATOM     23  O   UNL     1     100.516  -7.469  25.947  1.00  0.00    -0.395 OA
ATOM     24  C   UNL     1     100.608  -7.963  23.727  1.00  0.00     0.172 A 
ATOM     25  C   UNL     1     101.379  -6.600  25.197  1.00  0.00     0.586 C 
ATOM     26  O   UNL     1     101.451  -6.896  23.795  1.00  0.00    -0.395 OA
ATOM     27  F   UNL     1     102.627  -6.672  25.721  1.00  0.00    -0.125 F 
ATOM     28  F   UNL     1     100.945  -5.324  25.348  1.00  0.00    -0.125 F 
ENDBRANCH  16  18
ENDBRANCH   2  12
TORSDOF 3
ENDMDL
MODEL 6
REMARK VINA RESULT:    -6.351      3.491      9.677
REMARK INTER + INTRA:          -8.007
REMARK INTER:                  -7.651
REMARK INTRA:                  -0.357
REMARK UNBOUND:                -0.543
REMARK SMILES O=C(Nc1ccc2c(c1)OC(F)(F)O2)Nc1ccc(Cl)c(C(F)(F)F)c1
REMARK SMILES IDX 20 1 16 2 21 3 26 4 17 5 19 6 18 7 22 8 23 9 24 10 25 11
REMARK SMILES IDX 15 12 2 13 1 15 3 16 4 18 9 19 5 20 8 21 6 22 10 23 7 24
REMARK SMILES IDX 11 25 14 26 12 27 13 28
REMARK H PARENT 15 14 3 17
REMARK Flexibility Score: inf
ROOT
ATOM      1  Cl  UNL     1      89.150 -15.732  20.841  1.00  0.00    -0.084 Cl
ATOM      2  C   UNL     1      92.578 -13.856  23.101  1.00  0.00     0.043 A 
ATOM      3  C   UNL     1      90.215 -13.954  22.609  1.00  0.00     0.076 A 
ATOM      4  C   UNL     1      91.282 -13.382  23.304  1.00  0.00    -0.025 A 
ATOM      5  C   UNL     1      92.808 -14.900  22.206  1.00  0.00    -0.037 A 
ATOM      6  C   UNL     1      90.445 -14.998  21.714  1.00  0.00     0.053 A 
ATOM      7  C   UNL     1      91.741 -15.473  21.513  1.00  0.00    -0.041 A 
ENDROOT
BRANCH   3   8
ATOM      8  C   UNL     1      88.841 -13.420  22.855  1.00  0.00     0.417 C 
ATOM      9  F   UNL     1      88.810 -12.504  23.865  1.00  0.00    -0.166 F 
ATOM     10  F   UNL     1      88.299 -12.792  21.771  1.00  0.00    -0.166 F 
ATOM     11  F   UNL     1      87.937 -14.381  23.201  1.00  0.00    -0.166 F 
ENDBRANCH   3   8
BRANCH   2  12
ATOM     12  N   UNL     1      93.661 -13.275  23.803  1.00  0.00    -0.308 N 
ATOM     13  C   UNL     1      94.825 -12.696  23.272  1.00  0.00     0.323 C 
ATOM     14  H   UNL     1      93.577 -13.282  24.816  1.00  0.00     0.171 HD
ATOM     15  O   UNL     1      95.089 -12.602  22.077  1.00  0.00    -0.248 OA
ATOM     16  N   UNL     1      95.656 -12.231  24.320  1.00  0.00    -0.308 N 
ATOM     17  H   UNL     1      95.306 -12.379  25.264  1.00  0.00     0.171 HD
BRANCH  16  18
ATOM     18  C   UNL     1      96.896 -11.597  24.233  1.00  0.00     0.046 A 
ATOM     19  C   UNL     1      96.984 -10.326  23.659  1.00  0.00     0.008 A 
ATOM     20  C   UNL     1      98.045 -12.244  24.721  1.00  0.00    -0.035 A 
ATOM     21  C   UNL     1      98.231  -9.738  23.594  1.00  0.00     0.174 A 
ATOM     22  C   UNL     1      99.296 -11.627  24.644  1.00  0.00    -0.014 A 
ATOM     23  O   UNL     1      98.508  -8.512  23.073  1.00  0.00    -0.395 OA
ATOM     24  C   UNL     1      99.356 -10.371  24.074  1.00  0.00     0.172 A 
ATOM     25  C   UNL     1      99.927  -8.459  23.283  1.00  0.00     0.586 C 
ATOM     26  O   UNL     1     100.482  -9.622  23.914  1.00  0.00    -0.395 OA
ATOM     27  F   UNL     1     100.212  -7.373  24.045  1.00  0.00    -0.125 F 
ATOM     28  F   UNL     1     100.536  -8.286  22.083  1.00  0.00    -0.125 F 
ENDBRANCH  16  18
ENDBRANCH   2  12
TORSDOF 3
ENDMDL
MODEL 7
REMARK VINA RESULT:    -6.317     19.052     21.387
REMARK INTER + INTRA:          -7.968
REMARK INTER:                  -7.472
REMARK INTRA:                  -0.495
REMARK UNBOUND:                -0.543
REMARK SMILES O=C(Nc1ccc2c(c1)OC(F)(F)O2)Nc1ccc(Cl)c(C(F)(F)F)c1
REMARK SMILES IDX 20 1 16 2 21 3 26 4 17 5 19 6 18 7 22 8 23 9 24 10 25 11
REMARK SMILES IDX 15 12 2 13 1 15 3 16 4 18 9 19 5 20 8 21 6 22 10 23 7 24
REMARK SMILES IDX 11 25 14 26 12 27 13 28
REMARK H PARENT 15 14 3 17
REMARK Flexibility Score: inf
ROOT
ATOM      1  Cl  UNL     1      84.594   0.871  11.026  1.00  0.00    -0.084 Cl
ATOM      2  C   UNL     1      88.434   3.181  11.576  1.00  0.00     0.043 A 
ATOM      3  C   UNL     1      87.306   1.081  11.181  1.00  0.00     0.076 A 
ATOM      4  C   UNL     1      88.487   1.805  11.350  1.00  0.00    -0.025 A 
ATOM      5  C   UNL     1      87.202   3.832  11.630  1.00  0.00    -0.037 A 
ATOM      6  C   UNL     1      86.074   1.732  11.235  1.00  0.00     0.053 A 
ATOM      7  C   UNL     1      86.022   3.109  11.459  1.00  0.00    -0.041 A 
ENDROOT
BRANCH   3   8
ATOM      8  C   UNL     1      87.405  -0.391  10.939  1.00  0.00     0.417 C 
ATOM      9  F   UNL     1      86.792  -1.122  11.913  1.00  0.00    -0.166 F 
ATOM     10  F   UNL     1      86.832  -0.788   9.765  1.00  0.00    -0.166 F 
ATOM     11  F   UNL     1      88.688  -0.849  10.885  1.00  0.00    -0.166 F 
ENDBRANCH   3   8
BRANCH   2  12
ATOM     12  N   UNL     1      89.631   3.915  11.751  1.00  0.00    -0.308 N 
ATOM     13  C   UNL     1      90.217   4.340  12.954  1.00  0.00     0.323 C 
ATOM     14  H   UNL     1      90.120   4.161  10.894  1.00  0.00     0.171 HD
ATOM     15  O   UNL     1      89.765   4.131  14.076  1.00  0.00    -0.248 OA
ATOM     16  N   UNL     1      91.414   5.047  12.686  1.00  0.00    -0.308 N 
ATOM     17  H   UNL     1      91.664   5.143  11.705  1.00  0.00     0.171 HD
BRANCH  16  18
ATOM     18  C   UNL     1      92.299   5.635  13.591  1.00  0.00     0.046 A 
ATOM     19  C   UNL     1      92.465   7.022  13.596  1.00  0.00     0.008 A 
ATOM     20  C   UNL     1      93.017   4.825  14.488  1.00  0.00    -0.035 A 
ATOM     21  C   UNL     1      93.351   7.558  14.508  1.00  0.00     0.174 A 
ATOM     22  C   UNL     1      93.909   5.391  15.402  1.00  0.00    -0.014 A 
ATOM     23  O   UNL     1      93.639   8.879  14.658  1.00  0.00    -0.395 OA
ATOM     24  C   UNL     1      94.054   6.764  15.388  1.00  0.00     0.172 A 
ATOM     25  C   UNL     1      94.597   8.814  15.725  1.00  0.00     0.586 C 
ATOM     26  O   UNL     1      94.872   7.488  16.200  1.00  0.00    -0.395 OA
ATOM     27  F   UNL     1      94.143   9.562  16.761  1.00  0.00    -0.125 F 
ATOM     28  F   UNL     1      95.759   9.370  15.299  1.00  0.00    -0.125 F 
ENDBRANCH  16  18
ENDBRANCH   2  12
TORSDOF 3
ENDMDL
MODEL 8
REMARK VINA RESULT:    -6.315     23.354     23.923
REMARK INTER + INTRA:          -7.965
REMARK INTER:                  -7.383
REMARK INTRA:                  -0.581
REMARK UNBOUND:                -0.543
REMARK SMILES O=C(Nc1ccc2c(c1)OC(F)(F)O2)Nc1ccc(Cl)c(C(F)(F)F)c1
REMARK SMILES IDX 20 1 16 2 21 3 26 4 17 5 19 6 18 7 22 8 23 9 24 10 25 11
REMARK SMILES IDX 15 12 2 13 1 15 3 16 4 18 9 19 5 20 8 21 6 22 10 23 7 24
REMARK SMILES IDX 11 25 14 26 12 27 13 28
REMARK H PARENT 15 14 3 17
REMARK Flexibility Score: inf
ROOT
ATOM      1  Cl  UNL     1      90.057  10.721   5.348  1.00  0.00    -0.084 Cl
ATOM      2  C   UNL     1      87.907   8.177   8.395  1.00  0.00     0.043 A 
ATOM      3  C   UNL     1      88.030   9.093   6.164  1.00  0.00     0.076 A 
ATOM      4  C   UNL     1      87.375   8.308   7.112  1.00  0.00    -0.025 A 
ATOM      5  C   UNL     1      89.094   8.828   8.728  1.00  0.00    -0.037 A 
ATOM      6  C   UNL     1      89.217   9.745   6.497  1.00  0.00     0.053 A 
ATOM      7  C   UNL     1      89.750   9.612   7.780  1.00  0.00    -0.041 A 
ENDROOT
BRANCH   3   8
ATOM      8  C   UNL     1      87.429   9.208   4.799  1.00  0.00     0.417 C 
ATOM      9  F   UNL     1      86.258   8.519   4.686  1.00  0.00    -0.166 F 
ATOM     10  F   UNL     1      87.138  10.492   4.440  1.00  0.00    -0.166 F 
ATOM     11  F   UNL     1      88.236   8.732   3.808  1.00  0.00    -0.166 F 
ENDBRANCH   3   8
BRANCH   2  12
ATOM     12  N   UNL     1      87.241   7.382   9.359  1.00  0.00    -0.308 N 
ATOM     13  C   UNL     1      87.511   6.052   9.718  1.00  0.00     0.323 C 
ATOM     14  H   UNL     1      86.473   7.839   9.845  1.00  0.00     0.171 HD
ATOM     15  O   UNL     1      88.397   5.353   9.236  1.00  0.00    -0.248 OA
ATOM     16  N   UNL     1      86.610   5.631  10.726  1.00  0.00    -0.308 N 
ATOM     17  H   UNL     1      85.927   6.321  11.029  1.00  0.00     0.171 HD
BRANCH  16  18
ATOM     18  C   UNL     1      86.532   4.391  11.361  1.00  0.00     0.046 A 
ATOM     19  C   UNL     1      85.794   3.358  10.776  1.00  0.00     0.008 A 
ATOM     20  C   UNL     1      87.194   4.193  12.586  1.00  0.00    -0.035 A 
ATOM     21  C   UNL     1      85.745   2.150  11.441  1.00  0.00     0.174 A 
ATOM     22  C   UNL     1      87.130   2.960  13.239  1.00  0.00    -0.014 A 
ATOM     23  O   UNL     1      85.081   1.037  11.024  1.00  0.00    -0.395 OA
ATOM     24  C   UNL     1      86.396   1.956  12.639  1.00  0.00     0.172 A 
ATOM     25  C   UNL     1      85.392   0.136  12.098  1.00  0.00     0.586 C 
ATOM     26  O   UNL     1      86.221   0.696  13.127  1.00  0.00    -0.395 OA
ATOM     27  F   UNL     1      86.014  -0.953  11.583  1.00  0.00    -0.125 F 
ATOM     28  F   UNL     1      84.231  -0.285  12.660  1.00  0.00    -0.125 F 
ENDBRANCH  16  18
ENDBRANCH   2  12
TORSDOF 3
ENDMDL
MODEL 9
REMARK VINA RESULT:    -6.230     19.519     21.798
REMARK INTER + INTRA:          -7.866
REMARK INTER:                  -7.340
REMARK INTRA:                  -0.525
REMARK UNBOUND:                -0.543
REMARK SMILES O=C(Nc1ccc2c(c1)OC(F)(F)O2)Nc1ccc(Cl)c(C(F)(F)F)c1
REMARK SMILES IDX 20 1 16 2 21 3 26 4 17 5 19 6 18 7 22 8 23 9 24 10 25 11
REMARK SMILES IDX 15 12 2 13 1 15 3 16 4 18 9 19 5 20 8 21 6 22 10 23 7 24
REMARK SMILES IDX 11 25 14 26 12 27 13 28
REMARK H PARENT 15 14 3 17
REMARK Flexibility Score: inf
ROOT
ATOM      1  Cl  UNL     1      85.272   0.384  10.673  1.00  0.00    -0.084 Cl
ATOM      2  C   UNL     1      88.995   2.818  11.445  1.00  0.00     0.043 A 
ATOM      3  C   UNL     1      86.619   2.727  11.017  1.00  0.00     0.076 A 
ATOM      4  C   UNL     1      87.776   3.470  11.258  1.00  0.00    -0.025 A 
ATOM      5  C   UNL     1      89.057   1.426  11.394  1.00  0.00    -0.037 A 
ATOM      6  C   UNL     1      86.682   1.335  10.965  1.00  0.00     0.053 A 
ATOM      7  C   UNL     1      87.901   0.683  11.154  1.00  0.00    -0.041 A 
ENDROOT
BRANCH   3   8
ATOM      8  C   UNL     1      85.332   3.462  10.823  1.00  0.00     0.417 C 
ATOM      9  F   UNL     1      84.854   3.351   9.550  1.00  0.00    -0.166 F 
ATOM     10  F   UNL     1      84.326   3.019  11.633  1.00  0.00    -0.166 F 
ATOM     11  F   UNL     1      85.427   4.800  11.067  1.00  0.00    -0.166 F 
ENDBRANCH   3   8
BRANCH   2  12
ATOM     12  N   UNL     1      90.169   3.571  11.688  1.00  0.00    -0.308 N 
ATOM     13  C   UNL     1      90.582   4.164  12.892  1.00  0.00     0.323 C 
ATOM     14  H   UNL     1      90.782   3.692  10.886  1.00  0.00     0.171 HD
ATOM     15  O   UNL     1      89.968   4.117  13.953  1.00  0.00    -0.248 OA
ATOM     16  N   UNL     1      91.819   4.827  12.704  1.00  0.00    -0.308 N 
ATOM     17  H   UNL     1      92.211   4.781  11.767  1.00  0.00     0.171 HD
BRANCH  16  18
ATOM     18  C   UNL     1      92.576   5.539  13.636  1.00  0.00     0.046 A 
ATOM     19  C   UNL     1      92.591   6.935  13.594  1.00  0.00     0.008 A 
ATOM     20  C   UNL     1      93.317   4.844  14.608  1.00  0.00    -0.035 A 
ATOM     21  C   UNL     1      93.353   7.596  14.535  1.00  0.00     0.174 A 
ATOM     22  C   UNL     1      94.081   5.535  15.550  1.00  0.00    -0.014 A 
ATOM     23  O   UNL     1      93.488   8.946  14.648  1.00  0.00    -0.395 OA
ATOM     24  C   UNL     1      94.078   6.915  15.488  1.00  0.00     0.172 A 
ATOM     25  C   UNL     1      94.376   9.022  15.774  1.00  0.00     0.586 C 
ATOM     26  O   UNL     1      94.759   7.752  16.319  1.00  0.00    -0.395 OA
ATOM     27  F   UNL     1      93.778   9.751  16.749  1.00  0.00    -0.125 F 
ATOM     28  F   UNL     1      95.496   9.687  15.396  1.00  0.00    -0.125 F 
ENDBRANCH  16  18
ENDBRANCH   2  12
TORSDOF 3
ENDMDL
MODEL 10
REMARK VINA RESULT:    -6.196      3.593      9.677
REMARK INTER + INTRA:          -7.826
REMARK INTER:                  -7.292
REMARK INTRA:                  -0.534
REMARK UNBOUND:                -0.543
REMARK SMILES O=C(Nc1ccc2c(c1)OC(F)(F)O2)Nc1ccc(Cl)c(C(F)(F)F)c1
REMARK SMILES IDX 20 1 16 2 21 3 26 4 17 5 19 6 18 7 22 8 23 9 24 10 25 11
REMARK SMILES IDX 15 12 2 13 1 15 3 16 4 18 9 19 5 20 8 21 6 22 10 23 7 24
REMARK SMILES IDX 11 25 14 26 12 27 13 28
REMARK H PARENT 15 14 3 17
REMARK Flexibility Score: inf
ROOT
ATOM      1  Cl  UNL     1      91.251 -15.385  21.423  1.00  0.00    -0.084 Cl
ATOM      2  C   UNL     1      95.118 -13.398  22.638  1.00  0.00     0.043 A 
ATOM      3  C   UNL     1      92.703 -13.449  22.673  1.00  0.00     0.076 A 
ATOM      4  C   UNL     1      93.904 -12.844  23.045  1.00  0.00    -0.025 A 
ATOM      5  C   UNL     1      95.131 -14.557  21.863  1.00  0.00    -0.037 A 
ATOM      6  C   UNL     1      92.716 -14.607  21.898  1.00  0.00     0.053 A 
ATOM      7  C   UNL     1      93.930 -15.163  21.492  1.00  0.00    -0.041 A 
ENDROOT
BRANCH   3   8
ATOM      8  C   UNL     1      91.424 -12.825  23.131  1.00  0.00     0.417 C 
ATOM      9  F   UNL     1      91.618 -11.616  23.730  1.00  0.00    -0.166 F 
ATOM     10  F   UNL     1      90.538 -12.596  22.117  1.00  0.00    -0.166 F 
ATOM     11  F   UNL     1      90.743 -13.582  24.038  1.00  0.00    -0.166 F 
ENDBRANCH   3   8
BRANCH   2  12
ATOM     12  N   UNL     1      96.337 -12.784  23.013  1.00  0.00    -0.308 N 
ATOM     13  C   UNL     1      96.890 -11.591  22.521  1.00  0.00     0.323 C 
ATOM     14  H   UNL     1      96.871 -13.274  23.726  1.00  0.00     0.171 HD
ATOM     15  O   UNL     1      96.383 -10.875  21.664  1.00  0.00    -0.248 OA
ATOM     16  N   UNL     1      98.125 -11.330  23.163  1.00  0.00    -0.308 N 
ATOM     17  H   UNL     1      98.420 -12.014  23.855  1.00  0.00     0.171 HD
BRANCH  16  18
ATOM     18  C   UNL     1      98.996 -10.256  22.973  1.00  0.00     0.046 A 
ATOM     19  C   UNL     1      99.951 -10.311  21.954  1.00  0.00     0.008 A 
ATOM     20  C   UNL     1      98.906  -9.129  23.809  1.00  0.00    -0.035 A 
ATOM     21  C   UNL     1     100.790  -9.227  21.803  1.00  0.00     0.174 A 
ATOM     22  C   UNL     1      99.767  -8.043  23.636  1.00  0.00    -0.014 A 
ATOM     23  O   UNL     1     101.773  -9.103  20.871  1.00  0.00    -0.395 OA
ATOM     24  C   UNL     1     100.700  -8.122  22.622  1.00  0.00     0.172 A 
ATOM     25  C   UNL     1     102.281  -7.802  21.205  1.00  0.00     0.586 C 
ATOM     26  O   UNL     1     101.617  -7.166  22.306  1.00  0.00    -0.395 OA
ATOM     27  F   UNL     1     102.177  -7.003  20.114  1.00  0.00    -0.125 F 
ATOM     28  F   UNL     1     103.600  -7.916  21.502  1.00  0.00    -0.125 F 
ENDBRANCH  16  18
ENDBRANCH   2  12
TORSDOF 3
ENDMDL
MODEL 11
REMARK VINA RESULT:    -6.180     19.524     21.286
REMARK INTER + INTRA:          -7.807
REMARK INTER:                  -7.297
REMARK INTRA:                  -0.510
REMARK UNBOUND:                -0.543
REMARK SMILES O=C(Nc1ccc2c(c1)OC(F)(F)O2)Nc1ccc(Cl)c(C(F)(F)F)c1
REMARK SMILES IDX 20 1 16 2 21 3 26 4 17 5 19 6 18 7 22 8 23 9 24 10 25 11
REMARK SMILES IDX 15 12 2 13 1 15 3 16 4 18 9 19 5 20 8 21 6 22 10 23 7 24
REMARK SMILES IDX 11 25 14 26 12 27 13 28
REMARK H PARENT 15 14 3 17
REMARK Flexibility Score: inf
ROOT
ATOM      1  Cl  UNL     1      88.303  -5.666   4.370  1.00  0.00    -0.084 Cl
ATOM      2  C   UNL     1      86.862  -3.054   7.759  1.00  0.00     0.043 A 
ATOM      3  C   UNL     1      86.601  -3.862   5.497  1.00  0.00     0.076 A 
ATOM      4  C   UNL     1      86.163  -3.059   6.551  1.00  0.00    -0.025 A 
ATOM      5  C   UNL     1      87.996  -3.851   7.912  1.00  0.00    -0.037 A 
ATOM      6  C   UNL     1      87.735  -4.658   5.650  1.00  0.00     0.053 A 
ATOM      7  C   UNL     1      88.433  -4.654   6.859  1.00  0.00    -0.041 A 
ENDROOT
BRANCH   3   8
ATOM      8  C   UNL     1      85.824  -3.841   4.220  1.00  0.00     0.417 C 
ATOM      9  F   UNL     1      86.605  -3.560   3.138  1.00  0.00    -0.166 F 
ATOM     10  F   UNL     1      85.215  -5.030   3.935  1.00  0.00    -0.166 F 
ATOM     11  F   UNL     1      84.825  -2.914   4.205  1.00  0.00    -0.166 F 
ENDBRANCH   3   8
BRANCH   2  12
ATOM     12  N   UNL     1      86.420  -2.238   8.828  1.00  0.00    -0.308 N 
ATOM     13  C   UNL     1      86.767  -0.905   9.099  1.00  0.00     0.323 C 
ATOM     14  H   UNL     1      85.772  -2.681   9.474  1.00  0.00     0.171 HD
ATOM     15  O   UNL     1      87.532  -0.221   8.426  1.00  0.00    -0.248 OA
ATOM     16  N   UNL     1      86.102  -0.460  10.266  1.00  0.00    -0.308 N 
ATOM     17  H   UNL     1      85.497  -1.140  10.720  1.00  0.00     0.171 HD
BRANCH  16  18
ATOM     18  C   UNL     1      86.165   0.791  10.882  1.00  0.00     0.046 A 
ATOM     19  C   UNL     1      87.343   1.191  11.516  1.00  0.00     0.008 A 
ATOM     20  C   UNL     1      85.042   1.636  10.858  1.00  0.00    -0.035 A 
ATOM     21  C   UNL     1      87.360   2.436  12.111  1.00  0.00     0.174 A 
ATOM     22  C   UNL     1      85.083   2.893  11.467  1.00  0.00    -0.014 A 
ATOM     23  O   UNL     1      88.413   2.992  12.771  1.00  0.00    -0.395 OA
ATOM     24  C   UNL     1      86.259   3.265  12.086  1.00  0.00     0.172 A 
ATOM     25  C   UNL     1      87.841   4.252  13.151  1.00  0.00     0.586 C 
ATOM     26  O   UNL     1      86.483   4.445  12.728  1.00  0.00    -0.395 OA
ATOM     27  F   UNL     1      88.603   5.248  12.633  1.00  0.00    -0.125 F 
ATOM     28  F   UNL     1      87.893   4.361  14.503  1.00  0.00    -0.125 F 
ENDBRANCH  16  18
ENDBRANCH   2  12
TORSDOF 3
ENDMDL
MODEL 12
REMARK VINA RESULT:    -6.109     22.649     23.172
REMARK INTER + INTRA:          -7.723
REMARK INTER:                  -7.209
REMARK INTRA:                  -0.514
REMARK UNBOUND:                -0.543
REMARK SMILES O=C(Nc1ccc2c(c1)OC(F)(F)O2)Nc1ccc(Cl)c(C(F)(F)F)c1
REMARK SMILES IDX 20 1 16 2 21 3 26 4 17 5 19 6 18 7 22 8 23 9 24 10 25 11
REMARK SMILES IDX 15 12 2 13 1 15 3 16 4 18 9 19 5 20 8 21 6 22 10 23 7 24
REMARK SMILES IDX 11 25 14 26 12 27 13 28
REMARK H PARENT 15 14 3 17
REMARK Flexibility Score: inf
ROOT
ATOM      1  Cl  UNL     1      90.406  10.379   5.035  1.00  0.00    -0.084 Cl
ATOM      2  C   UNL     1      88.218   8.044   8.220  1.00  0.00     0.043 A 
ATOM      3  C   UNL     1      90.263   9.039   7.403  1.00  0.00     0.076 A 
ATOM      4  C   UNL     1      89.577   8.319   8.382  1.00  0.00    -0.025 A 
ATOM      5  C   UNL     1      87.547   8.489   7.081  1.00  0.00    -0.037 A 
ATOM      6  C   UNL     1      89.592   9.483   6.264  1.00  0.00     0.053 A 
ATOM      7  C   UNL     1      88.233   9.209   6.103  1.00  0.00    -0.041 A 
ENDROOT
BRANCH   3   8
ATOM      8  C   UNL     1      91.717   9.315   7.614  1.00  0.00     0.417 C 
ATOM      9  F   UNL     1      92.497   8.793   6.625  1.00  0.00    -0.166 F 
ATOM     10  F   UNL     1      92.016  10.647   7.654  1.00  0.00    -0.166 F 
ATOM     11  F   UNL     1      92.205   8.802   8.779  1.00  0.00    -0.166 F 
ENDBRANCH   3   8
BRANCH   2  12
ATOM     12  N   UNL     1      87.522   7.312   9.211  1.00  0.00    -0.308 N 
ATOM     13  C   UNL     1      87.704   5.970   9.581  1.00  0.00     0.323 C 
ATOM     14  H   UNL     1      86.804   7.830   9.711  1.00  0.00     0.171 HD
ATOM     15  O   UNL     1      88.521   5.201   9.085  1.00  0.00    -0.248 OA
ATOM     16  N   UNL     1      86.802   5.628  10.618  1.00  0.00    -0.308 N 
ATOM     17  H   UNL     1      86.180   6.370  10.929  1.00  0.00     0.171 HD
BRANCH  16  18
ATOM     18  C   UNL     1      86.649   4.404  11.272  1.00  0.00     0.046 A 
ATOM     19  C   UNL     1      85.908   3.385  10.670  1.00  0.00     0.008 A 
ATOM     20  C   UNL     1      87.243   4.210  12.531  1.00  0.00    -0.035 A 
ATOM     21  C   UNL     1      85.784   2.193  11.353  1.00  0.00     0.174 A 
ATOM     22  C   UNL     1      87.104   2.993  13.204  1.00  0.00    -0.014 A 
ATOM     23  O   UNL     1      85.104   1.095  10.925  1.00  0.00    -0.395 OA
ATOM     24  C   UNL     1      86.367   2.002  12.587  1.00  0.00     0.172 A 
ATOM     25  C   UNL     1      85.330   0.206  12.030  1.00  0.00     0.586 C 
ATOM     26  O   UNL     1      86.125   0.759  13.088  1.00  0.00    -0.395 OA
ATOM     27  F   UNL     1      85.940  -0.914  11.567  1.00  0.00    -0.125 F 
ATOM     28  F   UNL     1      84.128  -0.165  12.539  1.00  0.00    -0.125 F 
ENDBRANCH  16  18
ENDBRANCH   2  12
TORSDOF 3
ENDMDL
MODEL 13
REMARK VINA RESULT:    -6.094     18.250     18.871
REMARK INTER + INTRA:          -7.705
REMARK INTER:                  -7.143
REMARK INTRA:                  -0.562
REMARK UNBOUND:                -0.543
REMARK SMILES O=C(Nc1ccc2c(c1)OC(F)(F)O2)Nc1ccc(Cl)c(C(F)(F)F)c1
REMARK SMILES IDX 20 1 16 2 21 3 26 4 17 5 19 6 18 7 22 8 23 9 24 10 25 11
REMARK SMILES IDX 15 12 2 13 1 15 3 16 4 18 9 19 5 20 8 21 6 22 10 23 7 24
REMARK SMILES IDX 11 25 14 26 12 27 13 28
REMARK H PARENT 15 14 3 17
REMARK Flexibility Score: inf
ROOT
ATOM      1  Cl  UNL     1      95.741   7.104  16.032  1.00  0.00    -0.084 Cl
ATOM      2  C   UNL     1      92.449   5.556  13.358  1.00  0.00     0.043 A 
ATOM      3  C   UNL     1      94.497   5.164  14.579  1.00  0.00     0.076 A 
ATOM      4  C   UNL     1      93.474   4.696  13.754  1.00  0.00    -0.025 A 
ATOM      5  C   UNL     1      92.448   6.882  13.788  1.00  0.00    -0.037 A 
ATOM      6  C   UNL     1      94.495   6.491  15.008  1.00  0.00     0.053 A 
ATOM      7  C   UNL     1      93.470   7.351  14.613  1.00  0.00    -0.041 A 
ENDROOT
BRANCH   3   8
ATOM      8  C   UNL     1      95.576   4.211  14.983  1.00  0.00     0.417 C 
ATOM      9  F   UNL     1      95.699   4.105  16.337  1.00  0.00    -0.166 F 
ATOM     10  F   UNL     1      95.373   2.938  14.531  1.00  0.00    -0.166 F 
ATOM     11  F   UNL     1      96.812   4.561  14.526  1.00  0.00    -0.166 F 
ENDBRANCH   3   8
BRANCH   2  12
ATOM     12  N   UNL     1      91.412   5.082  12.520  1.00  0.00    -0.308 N 
ATOM     13  C   UNL     1      90.232   4.421  12.895  1.00  0.00     0.323 C 
ATOM     14  H   UNL     1      91.548   5.244  11.525  1.00  0.00     0.171 HD
ATOM     15  O   UNL     1      89.909   4.145  14.045  1.00  0.00    -0.248 OA
ATOM     16  N   UNL     1      89.462   4.117  11.745  1.00  0.00    -0.308 N 
ATOM     17  H   UNL     1      89.858   4.408  10.855  1.00  0.00     0.171 HD
BRANCH  16  18
ATOM     18  C   UNL     1      88.228   3.470  11.670  1.00  0.00     0.046 A 
ATOM     19  C   UNL     1      88.168   2.079  11.790  1.00  0.00     0.008 A 
ATOM     20  C   UNL     1      87.058   4.223  11.472  1.00  0.00    -0.035 A 
ATOM     21  C   UNL     1      86.926   1.483  11.709  1.00  0.00     0.174 A 
ATOM     22  C   UNL     1      85.812   3.596  11.394  1.00  0.00    -0.014 A 
ATOM     23  O   UNL     1      86.674   0.149  11.805  1.00  0.00    -0.395 OA
ATOM     24  C   UNL     1      85.779   2.221  11.517  1.00  0.00     0.172 A 
ATOM     25  C   UNL     1      85.247   0.145  11.648  1.00  0.00     0.586 C 
ATOM     26  O   UNL     1      84.663   1.442  11.466  1.00  0.00    -0.395 OA
ATOM     27  F   UNL     1      84.693  -0.432  12.743  1.00  0.00    -0.125 F 
ATOM     28  F   UNL     1      84.931  -0.626  10.577  1.00  0.00    -0.125 F 
ENDBRANCH  16  18
ENDBRANCH   2  12
TORSDOF 3
ENDMDL
MODEL 14
REMARK VINA RESULT:    -6.044     23.276     24.902
REMARK INTER + INTRA:          -7.646
REMARK INTER:                  -7.308
REMARK INTRA:                  -0.338
REMARK UNBOUND:                -0.543
REMARK SMILES O=C(Nc1ccc2c(c1)OC(F)(F)O2)Nc1ccc(Cl)c(C(F)(F)F)c1
REMARK SMILES IDX 20 1 16 2 21 3 26 4 17 5 19 6 18 7 22 8 23 9 24 10 25 11
REMARK SMILES IDX 15 12 2 13 1 15 3 16 4 18 9 19 5 20 8 21 6 22 10 23 7 24
REMARK SMILES IDX 11 25 14 26 12 27 13 28
REMARK H PARENT 15 14 3 17
REMARK Flexibility Score: inf
ROOT
ATOM      1  Cl  UNL     1      86.827   0.405  13.724  1.00  0.00    -0.084 Cl
ATOM      2  C   UNL     1      86.766   4.322  11.479  1.00  0.00     0.043 A 
ATOM      3  C   UNL     1      85.968   2.056  11.734  1.00  0.00     0.076 A 
ATOM      4  C   UNL     1      85.955   3.271  11.049  1.00  0.00    -0.025 A 
ATOM      5  C   UNL     1      87.587   4.158  12.594  1.00  0.00    -0.037 A 
ATOM      6  C   UNL     1      86.788   1.892  12.849  1.00  0.00     0.053 A 
ATOM      7  C   UNL     1      87.598   2.944  13.280  1.00  0.00    -0.041 A 
ENDROOT
BRANCH   3   8
ATOM      8  C   UNL     1      85.083   0.956  11.242  1.00  0.00     0.417 C 
ATOM      9  F   UNL     1      85.735   0.096  10.408  1.00  0.00    -0.166 F 
ATOM     10  F   UNL     1      84.573   0.181  12.244  1.00  0.00    -0.166 F 
ATOM     11  F   UNL     1      83.999   1.399  10.543  1.00  0.00    -0.166 F 
ENDBRANCH   3   8
BRANCH   2  12
ATOM     12  N   UNL     1      86.756   5.554  10.783  1.00  0.00    -0.308 N 
ATOM     13  C   UNL     1      87.552   5.937   9.692  1.00  0.00     0.323 C 
ATOM     14  H   UNL     1      86.086   6.241  11.122  1.00  0.00     0.171 HD
ATOM     15  O   UNL     1      88.406   5.237   9.157  1.00  0.00    -0.248 OA
ATOM     16  N   UNL     1      87.224   7.256   9.293  1.00  0.00    -0.308 N 
ATOM     17  H   UNL     1      86.493   7.714   9.831  1.00  0.00     0.171 HD
BRANCH  16  18
ATOM     18  C   UNL     1      87.771   8.014   8.257  1.00  0.00     0.046 A 
ATOM     19  C   UNL     1      88.857   8.855   8.514  1.00  0.00     0.008 A 
ATOM     20  C   UNL     1      87.224   7.925   6.965  1.00  0.00    -0.035 A 
ATOM     21  C   UNL     1      89.365   9.585   7.459  1.00  0.00     0.174 A 
ATOM     22  C   UNL     1      87.756   8.675   5.913  1.00  0.00    -0.014 A 
ATOM     23  O   UNL     1      90.414  10.450   7.520  1.00  0.00    -0.395 OA
ATOM     24  C   UNL     1      88.830   9.497   6.193  1.00  0.00     0.172 A 
ATOM     25  C   UNL     1      90.466  10.887   6.153  1.00  0.00     0.586 C 
ATOM     26  O   UNL     1      89.475  10.297   5.300  1.00  0.00    -0.395 OA
ATOM     27  F   UNL     1      91.694  10.603   5.654  1.00  0.00    -0.125 F 
ATOM     28  F   UNL     1      90.315  12.235   6.124  1.00  0.00    -0.125 F 
ENDBRANCH  16  18
ENDBRANCH   2  12
TORSDOF 3
ENDMDL
MODEL 15
REMARK VINA RESULT:    -6.013     18.683     19.316
REMARK INTER + INTRA:          -7.611
REMARK INTER:                  -7.197
REMARK INTRA:                  -0.413
REMARK UNBOUND:                -0.543
REMARK SMILES O=C(Nc1ccc2c(c1)OC(F)(F)O2)Nc1ccc(Cl)c(C(F)(F)F)c1
REMARK SMILES IDX 20 1 16 2 21 3 26 4 17 5 19 6 18 7 22 8 23 9 24 10 25 11
REMARK SMILES IDX 15 12 2 13 1 15 3 16 4 18 9 19 5 20 8 21 6 22 10 23 7 24
REMARK SMILES IDX 11 25 14 26 12 27 13 28
REMARK H PARENT 15 14 3 17
REMARK Flexibility Score: inf
ROOT
ATOM      1  Cl  UNL     1      96.349   6.279  16.262  1.00  0.00    -0.084 Cl
ATOM      2  C   UNL     1      92.690   5.505  13.734  1.00  0.00     0.043 A 
ATOM      3  C   UNL     1      93.948   6.976  15.180  1.00  0.00     0.076 A 
ATOM      4  C   UNL     1      92.822   6.727  14.395  1.00  0.00    -0.025 A 
ATOM      5  C   UNL     1      93.684   4.535  13.856  1.00  0.00    -0.037 A 
ATOM      6  C   UNL     1      94.941   6.005  15.303  1.00  0.00     0.053 A 
ATOM      7  C   UNL     1      94.810   4.784  14.640  1.00  0.00    -0.041 A 
ENDROOT
BRANCH   3   8
ATOM      8  C   UNL     1      94.053   8.297  15.871  1.00  0.00     0.417 C 
ATOM      9  F   UNL     1      93.207   9.230  15.346  1.00  0.00    -0.166 F 
ATOM     10  F   UNL     1      93.756   8.240  17.202  1.00  0.00    -0.166 F 
ATOM     11  F   UNL     1      95.298   8.849  15.805  1.00  0.00    -0.166 F 
ENDBRANCH   3   8
BRANCH   2  12
ATOM     12  N   UNL     1      91.547   5.251  12.939  1.00  0.00    -0.308 N 
ATOM     13  C   UNL     1      90.418   4.483  13.268  1.00  0.00     0.323 C 
ATOM     14  H   UNL     1      91.552   5.681  12.017  1.00  0.00     0.171 HD
ATOM     15  O   UNL     1      90.246   3.897  14.332  1.00  0.00    -0.248 OA
ATOM     16  N   UNL     1      89.501   4.485  12.190  1.00  0.00    -0.308 N 
ATOM     17  H   UNL     1      89.780   5.017  11.369  1.00  0.00     0.171 HD
BRANCH  16  18
ATOM     18  C   UNL     1      88.260   3.851  12.101  1.00  0.00     0.046 A 
ATOM     19  C   UNL     1      88.202   2.469  11.909  1.00  0.00     0.008 A 
ATOM     20  C   UNL     1      87.082   4.611  12.203  1.00  0.00    -0.035 A 
ATOM     21  C   UNL     1      86.954   1.886  11.827  1.00  0.00     0.174 A 
ATOM     22  C   UNL     1      85.830   3.998  12.117  1.00  0.00    -0.014 A 
ATOM     23  O   UNL     1      86.702   0.561  11.644  1.00  0.00    -0.395 OA
ATOM     24  C   UNL     1      85.799   2.630  11.929  1.00  0.00     0.172 A 
ATOM     25  C   UNL     1      85.267   0.570  11.642  1.00  0.00     0.586 C 
ATOM     26  O   UNL     1      84.677   1.866  11.821  1.00  0.00    -0.395 OA
ATOM     27  F   UNL     1      84.827  -0.248  12.631  1.00  0.00    -0.125 F 
ATOM     28  F   UNL     1      84.832   0.056  10.464  1.00  0.00    -0.125 F 
ENDBRANCH  16  18
ENDBRANCH   2  12
TORSDOF 3
ENDMDL
MODEL 16
REMARK VINA RESULT:    -6.006      3.846      9.856
REMARK INTER + INTRA:          -7.602
REMARK INTER:                  -7.509
REMARK INTRA:                  -0.092
REMARK UNBOUND:                -0.543
REMARK SMILES O=C(Nc1ccc2c(c1)OC(F)(F)O2)Nc1ccc(Cl)c(C(F)(F)F)c1
REMARK SMILES IDX 20 1 16 2 21 3 26 4 17 5 19 6 18 7 22 8 23 9 24 10 25 11
REMARK SMILES IDX 15 12 2 13 1 15 3 16 4 18 9 19 5 20 8 21 6 22 10 23 7 24
REMARK SMILES IDX 11 25 14 26 12 27 13 28
REMARK H PARENT 15 14 3 17
REMARK Flexibility Score: inf
ROOT
ATOM      1  Cl  UNL     1      89.814 -16.593  21.829  1.00  0.00    -0.084 Cl
ATOM      2  C   UNL     1      92.857 -13.387  22.746  1.00  0.00     0.043 A 
ATOM      3  C   UNL     1      90.582 -14.190  22.859  1.00  0.00     0.076 A 
ATOM      4  C   UNL     1      91.531 -13.206  23.139  1.00  0.00    -0.025 A 
ATOM      5  C   UNL     1      93.234 -14.550  22.076  1.00  0.00    -0.037 A 
ATOM      6  C   UNL     1      90.959 -15.353  22.189  1.00  0.00     0.053 A 
ATOM      7  C   UNL     1      92.286 -15.534  21.797  1.00  0.00    -0.041 A 
ENDROOT
BRANCH   3   8
ATOM      8  C   UNL     1      89.171 -13.960  23.298  1.00  0.00     0.417 C 
ATOM      9  F   UNL     1      89.012 -12.769  23.942  1.00  0.00    -0.166 F 
ATOM     10  F   UNL     1      88.277 -13.943  22.266  1.00  0.00    -0.166 F 
ATOM     11  F   UNL     1      88.707 -14.911  24.159  1.00  0.00    -0.166 F 
ENDBRANCH   3   8
BRANCH   2  12
ATOM     12  N   UNL     1      93.820 -12.388  23.028  1.00  0.00    -0.308 N 
ATOM     13  C   UNL     1      94.846 -12.423  23.986  1.00  0.00     0.323 C 
ATOM     14  H   UNL     1      93.752 -11.546  22.463  1.00  0.00     0.171 HD
ATOM     15  O   UNL     1      95.073 -13.356  24.749  1.00  0.00    -0.248 OA
ATOM     16  N   UNL     1      95.589 -11.218  23.942  1.00  0.00    -0.308 N 
ATOM     17  H   UNL     1      95.284 -10.532  23.256  1.00  0.00     0.171 HD
BRANCH  16  18
ATOM     18  C   UNL     1      96.687 -10.843  24.718  1.00  0.00     0.046 A 
ATOM     19  C   UNL     1      97.568  -9.868  24.246  1.00  0.00     0.008 A 
ATOM     20  C   UNL     1      96.895 -11.451  25.968  1.00  0.00    -0.035 A 
ATOM     21  C   UNL     1      98.638  -9.529  25.048  1.00  0.00     0.174 A 
ATOM     22  C   UNL     1      97.987 -11.091  26.762  1.00  0.00    -0.014 A 
ATOM     23  O   UNL     1      99.594  -8.605  24.755  1.00  0.00    -0.395 OA
ATOM     24  C   UNL     1      98.842 -10.124  26.273  1.00  0.00     0.172 A 
ATOM     25  C   UNL     1     100.410  -8.697  25.932  1.00  0.00     0.586 C 
ATOM     26  O   UNL     1      99.952  -9.649  26.903  1.00  0.00    -0.395 OA
ATOM     27  F   UNL     1     100.467  -7.474  26.516  1.00  0.00    -0.125 F 
ATOM     28  F   UNL     1     101.671  -9.031  25.560  1.00  0.00    -0.125 F 
ENDBRANCH  16  18
ENDBRANCH   2  12
TORSDOF 3
ENDMDL
MODEL 17
REMARK VINA RESULT:    -5.998     19.336     20.734
REMARK INTER + INTRA:          -7.593
REMARK INTER:                  -7.050
REMARK INTRA:                  -0.543
REMARK UNBOUND:                -0.543
REMARK SMILES O=C(Nc1ccc2c(c1)OC(F)(F)O2)Nc1ccc(Cl)c(C(F)(F)F)c1
REMARK SMILES IDX 20 1 16 2 21 3 26 4 17 5 19 6 18 7 22 8 23 9 24 10 25 11
REMARK SMILES IDX 15 12 2 13 1 15 3 16 4 18 9 19 5 20 8 21 6 22 10 23 7 24
REMARK SMILES IDX 11 25 14 26 12 27 13 28
REMARK H PARENT 15 14 3 17
REMARK Flexibility Score: inf
ROOT
ATOM      1  Cl  UNL     1      87.308  -5.270   3.347  1.00  0.00    -0.084 Cl
ATOM      2  C   UNL     1      86.661  -3.119   7.263  1.00  0.00     0.043 A 
ATOM      3  C   UNL     1      87.970  -4.635   5.913  1.00  0.00     0.076 A 
ATOM      4  C   UNL     1      87.762  -3.964   7.118  1.00  0.00    -0.025 A 
ATOM      5  C   UNL     1      85.772  -2.944   6.204  1.00  0.00    -0.037 A 
ATOM      6  C   UNL     1      87.080  -4.460   4.853  1.00  0.00     0.053 A 
ATOM      7  C   UNL     1      85.980  -3.613   4.998  1.00  0.00    -0.041 A 
ENDROOT
BRANCH   3   8
ATOM      8  C   UNL     1      89.161  -5.531   5.796  1.00  0.00     0.417 C 
ATOM      9  F   UNL     1      88.818  -6.825   5.540  1.00  0.00    -0.166 F 
ATOM     10  F   UNL     1      90.015  -5.171   4.793  1.00  0.00    -0.166 F 
ATOM     11  F   UNL     1      89.928  -5.567   6.923  1.00  0.00    -0.166 F 
ENDBRANCH   3   8
BRANCH   2  12
ATOM     12  N   UNL     1      86.448  -2.440   8.487  1.00  0.00    -0.308 N 
ATOM     13  C   UNL     1      86.610  -1.071   8.755  1.00  0.00     0.323 C 
ATOM     14  H   UNL     1      86.140  -3.023   9.261  1.00  0.00     0.171 HD
ATOM     15  O   UNL     1      86.972  -0.227   7.942  1.00  0.00    -0.248 OA
ATOM     16  N   UNL     1      86.291  -0.803  10.108  1.00  0.00    -0.308 N 
ATOM     17  H   UNL     1      86.005  -1.605  10.665  1.00  0.00     0.171 HD
BRANCH  16  18
ATOM     18  C   UNL     1      86.317   0.418  10.784  1.00  0.00     0.046 A 
ATOM     19  C   UNL     1      87.503   0.854  11.379  1.00  0.00     0.008 A 
ATOM     20  C   UNL     1      85.149   1.197  10.860  1.00  0.00    -0.035 A 
ATOM     21  C   UNL     1      87.481   2.068  12.036  1.00  0.00     0.174 A 
ATOM     22  C   UNL     1      85.152   2.422  11.530  1.00  0.00    -0.014 A 
ATOM     23  O   UNL     1      88.535   2.650  12.670  1.00  0.00    -0.395 OA
ATOM     24  C   UNL     1      86.337   2.831  12.109  1.00  0.00     0.172 A 
ATOM     25  C   UNL     1      87.915   3.855  13.144  1.00  0.00     0.586 C 
ATOM     26  O   UNL     1      86.529   3.989  12.800  1.00  0.00    -0.395 OA
ATOM     27  F   UNL     1      88.592   4.918  12.641  1.00  0.00    -0.125 F 
ATOM     28  F   UNL     1      88.032   3.900  14.495  1.00  0.00    -0.125 F 
ENDBRANCH  16  18
ENDBRANCH   2  12
TORSDOF 3
ENDMDL
MODEL 18
REMARK VINA RESULT:    -5.998     19.758     20.334
REMARK INTER + INTRA:          -7.592
REMARK INTER:                  -7.064
REMARK INTRA:                  -0.528
REMARK UNBOUND:                -0.543
REMARK SMILES O=C(Nc1ccc2c(c1)OC(F)(F)O2)Nc1ccc(Cl)c(C(F)(F)F)c1
REMARK SMILES IDX 20 1 16 2 21 3 26 4 17 5 19 6 18 7 22 8 23 9 24 10 25 11
REMARK SMILES IDX 15 12 2 13 1 15 3 16 4 18 9 19 5 20 8 21 6 22 10 23 7 24
REMARK SMILES IDX 11 25 14 26 12 27 13 28
REMARK H PARENT 15 14 3 17
REMARK Flexibility Score: inf
ROOT
ATOM      1  Cl  UNL     1      95.578   8.408  12.263  1.00  0.00    -0.084 Cl
ATOM      2  C   UNL     1      91.301   6.963  12.296  1.00  0.00     0.043 A 
ATOM      3  C   UNL     1      93.412   7.245  13.437  1.00  0.00     0.076 A 
ATOM      4  C   UNL     1      92.088   6.804  13.437  1.00  0.00    -0.025 A 
ATOM      5  C   UNL     1      91.837   7.564  11.157  1.00  0.00    -0.037 A 
ATOM      6  C   UNL     1      93.947   7.846  12.298  1.00  0.00     0.053 A 
ATOM      7  C   UNL     1      93.160   8.007  11.158  1.00  0.00    -0.041 A 
ENDROOT
BRANCH   3   8
ATOM      8  C   UNL     1      94.222   7.058  14.679  1.00  0.00     0.417 C 
ATOM      9  F   UNL     1      93.518   6.447  15.675  1.00  0.00    -0.166 F 
ATOM     10  F   UNL     1      95.335   6.290  14.492  1.00  0.00    -0.166 F 
ATOM     11  F   UNL     1      94.678   8.227  15.213  1.00  0.00    -0.166 F 
ENDBRANCH   3   8
BRANCH   2  12
ATOM     12  N   UNL     1      89.959   6.513  12.294  1.00  0.00    -0.308 N 
ATOM     13  C   UNL     1      89.446   5.327  11.746  1.00  0.00     0.323 C 
ATOM     14  H   UNL     1      89.292   7.132  12.747  1.00  0.00     0.171 HD
ATOM     15  O   UNL     1      90.106   4.470  11.167  1.00  0.00    -0.248 OA
ATOM     16  N   UNL     1      88.048   5.260  11.962  1.00  0.00    -0.308 N 
ATOM     17  H   UNL     1      87.636   6.046  12.458  1.00  0.00     0.171 HD
BRANCH  16  18
ATOM     18  C   UNL     1      87.155   4.257  11.582  1.00  0.00     0.046 A 
ATOM     19  C   UNL     1      87.238   2.995  12.175  1.00  0.00     0.008 A 
ATOM     20  C   UNL     1      86.182   4.525  10.603  1.00  0.00    -0.035 A 
ATOM     21  C   UNL     1      86.335   2.035  11.768  1.00  0.00     0.174 A 
ATOM     22  C   UNL     1      85.279   3.536  10.207  1.00  0.00    -0.014 A 
ATOM     23  O   UNL     1      86.264   0.758  12.233  1.00  0.00    -0.395 OA
ATOM     24  C   UNL     1      85.380   2.298  10.810  1.00  0.00     0.172 A 
ATOM     25  C   UNL     1      85.163   0.262  11.456  1.00  0.00     0.586 C 
ATOM     26  O   UNL     1      84.591   1.219  10.553  1.00  0.00    -0.395 OA
ATOM     27  F   UNL     1      84.195  -0.169  12.303  1.00  0.00    -0.125 F 
ATOM     28  F   UNL     1      85.586  -0.810  10.740  1.00  0.00    -0.125 F 
ENDBRANCH  16  18
ENDBRANCH   2  12
TORSDOF 3
ENDMDL
MODEL 19
REMARK VINA RESULT:    -5.988     22.497     23.056
REMARK INTER + INTRA:          -7.581
REMARK INTER:                  -7.028
REMARK INTRA:                  -0.553
REMARK UNBOUND:                -0.543
REMARK SMILES O=C(Nc1ccc2c(c1)OC(F)(F)O2)Nc1ccc(Cl)c(C(F)(F)F)c1
REMARK SMILES IDX 20 1 16 2 21 3 26 4 17 5 19 6 18 7 22 8 23 9 24 10 25 11
REMARK SMILES IDX 15 12 2 13 1 15 3 16 4 18 9 19 5 20 8 21 6 22 10 23 7 24
REMARK SMILES IDX 11 25 14 26 12 27 13 28
REMARK H PARENT 15 14 3 17
REMARK Flexibility Score: inf
ROOT
ATOM      1  Cl  UNL     1      92.789  10.041   6.031  1.00  0.00    -0.084 Cl
ATOM      2  C   UNL     1      90.220   7.930   9.085  1.00  0.00     0.043 A 
ATOM      3  C   UNL     1      90.409   9.451   7.217  1.00  0.00     0.076 A 
ATOM      4  C   UNL     1      89.624   8.792   8.164  1.00  0.00    -0.025 A 
ATOM      5  C   UNL     1      91.599   7.726   9.057  1.00  0.00    -0.037 A 
ATOM      6  C   UNL     1      91.788   9.247   7.190  1.00  0.00     0.053 A 
ATOM      7  C   UNL     1      92.384   8.384   8.110  1.00  0.00    -0.041 A 
ENDROOT
BRANCH   3   8
ATOM      8  C   UNL     1      89.732  10.364   6.246  1.00  0.00     0.417 C 
ATOM      9  F   UNL     1      90.164  11.653   6.354  1.00  0.00    -0.166 F 
ATOM     10  F   UNL     1      89.933  10.017   4.942  1.00  0.00    -0.166 F 
ATOM     11  F   UNL     1      88.378  10.415   6.399  1.00  0.00    -0.166 F 
ENDBRANCH   3   8
BRANCH   2  12
ATOM     12  N   UNL     1      89.425   7.263  10.047  1.00  0.00    -0.308 N 
ATOM     13  C   UNL     1      88.894   5.965   9.980  1.00  0.00     0.323 C 
ATOM     14  H   UNL     1      89.218   7.798  10.887  1.00  0.00     0.171 HD
ATOM     15  O   UNL     1      89.044   5.185   9.045  1.00  0.00    -0.248 OA
ATOM     16  N   UNL     1      88.156   5.684  11.155  1.00  0.00    -0.308 N 
ATOM     17  H   UNL     1      88.118   6.429  11.846  1.00  0.00     0.171 HD
BRANCH  16  18
ATOM     18  C   UNL     1      87.469   4.517  11.494  1.00  0.00     0.046 A 
ATOM     19  C   UNL     1      88.184   3.385  11.893  1.00  0.00     0.008 A 
ATOM     20  C   UNL     1      86.065   4.491  11.428  1.00  0.00    -0.035 A 
ATOM     21  C   UNL     1      87.463   2.254  12.218  1.00  0.00     0.174 A 
ATOM     22  C   UNL     1      85.358   3.334  11.763  1.00  0.00    -0.014 A 
ATOM     23  O   UNL     1      87.985   1.065  12.627  1.00  0.00    -0.395 OA
ATOM     24  C   UNL     1      86.087   2.229  12.155  1.00  0.00     0.172 A 
ATOM     25  C   UNL     1      86.781   0.305  12.807  1.00  0.00     0.586 C 
ATOM     26  O   UNL     1      85.572   1.021  12.516  1.00  0.00    -0.395 OA
ATOM     27  F   UNL     1      86.730  -0.129  14.091  1.00  0.00    -0.125 F 
ATOM     28  F   UNL     1      86.837  -0.791  12.009  1.00  0.00    -0.125 F 
ENDBRANCH  16  18
ENDBRANCH   2  12
TORSDOF 3
ENDMDL
MODEL 20
REMARK VINA RESULT:    -5.905      3.645      9.888
REMARK INTER + INTRA:          -7.484
REMARK INTER:                  -7.294
REMARK INTRA:                  -0.189
REMARK UNBOUND:                -0.543
REMARK SMILES O=C(Nc1ccc2c(c1)OC(F)(F)O2)Nc1ccc(Cl)c(C(F)(F)F)c1
REMARK SMILES IDX 20 1 16 2 21 3 26 4 17 5 19 6 18 7 22 8 23 9 24 10 25 11
REMARK SMILES IDX 15 12 2 13 1 15 3 16 4 18 9 19 5 20 8 21 6 22 10 23 7 24
REMARK SMILES IDX 11 25 14 26 12 27 13 28
REMARK H PARENT 15 14 3 17
REMARK Flexibility Score: inf
ROOT
ATOM      1  Cl  UNL     1      89.765 -15.495  24.996  1.00  0.00    -0.084 Cl
ATOM      2  C   UNL     1      93.284 -13.467  23.025  1.00  0.00     0.043 A 
ATOM      3  C   UNL     1      90.894 -13.741  23.243  1.00  0.00     0.076 A 
ATOM      4  C   UNL     1      91.988 -13.119  22.641  1.00  0.00    -0.025 A 
ATOM      5  C   UNL     1      93.484 -14.434  24.010  1.00  0.00    -0.037 A 
ATOM      6  C   UNL     1      91.094 -14.708  24.227  1.00  0.00     0.053 A 
ATOM      7  C   UNL     1      92.390 -15.054  24.612  1.00  0.00    -0.041 A 
ENDROOT
BRANCH   3   8
ATOM      8  C   UNL     1      89.521 -13.340  22.806  1.00  0.00     0.417 C 
ATOM      9  F   UNL     1      89.541 -12.481  21.746  1.00  0.00    -0.166 F 
ATOM     10  F   UNL     1      88.747 -14.393  22.412  1.00  0.00    -0.166 F 
ATOM     11  F   UNL     1      88.803 -12.710  23.778  1.00  0.00    -0.166 F 
ENDBRANCH   3   8
BRANCH   2  12
ATOM     12  N   UNL     1      94.395 -12.838  22.414  1.00  0.00    -0.308 N 
ATOM     13  C   UNL     1      95.356 -12.008  23.013  1.00  0.00     0.323 C 
ATOM     14  H   UNL     1      94.502 -13.015  21.418  1.00  0.00     0.171 HD
ATOM     15  O   UNL     1      95.380 -11.691  24.198  1.00  0.00    -0.248 OA
ATOM     16  N   UNL     1      96.301 -11.587  22.046  1.00  0.00    -0.308 N 
ATOM     17  H   UNL     1      96.153 -11.930  21.100  1.00  0.00     0.171 HD
BRANCH  16  18
ATOM     18  C   UNL     1      97.413 -10.760  22.217  1.00  0.00     0.046 A 
ATOM     19  C   UNL     1      98.611 -11.068  21.568  1.00  0.00     0.008 A 
ATOM     20  C   UNL     1      97.316  -9.627  23.043  1.00  0.00    -0.035 A 
ATOM     21  C   UNL     1      99.682 -10.222  21.766  1.00  0.00     0.174 A 
ATOM     22  C   UNL     1      98.415  -8.785  23.229  1.00  0.00    -0.014 A 
ATOM     23  O   UNL     1     100.920 -10.360  21.218  1.00  0.00    -0.395 OA
ATOM     24  C   UNL     1      99.587  -9.110  22.575  1.00  0.00     0.172 A 
ATOM     25  C   UNL     1     101.579  -9.214  21.778  1.00  0.00     0.586 C 
ATOM     26  O   UNL     1     100.755  -8.412  22.636  1.00  0.00    -0.395 OA
ATOM     27  F   UNL     1     102.035  -8.438  20.764  1.00  0.00    -0.125 F 
ATOM     28  F   UNL     1     102.657  -9.636  22.485  1.00  0.00    -0.125 F 
ENDBRANCH  16  18
ENDBRANCH   2  12
TORSDOF 3
ENDMDL
