REMARK SMILES O=C(Nc1ccc2c(c1)OC(F)(F)O2)Nc1ccc(Cl)c(C(F)(F)F)c1
REMARK SMILES IDX 20 1 16 2 21 3 26 4 17 5 19 6 18 7 22 8 23 9 24 10 25 11
REMARK SMILES IDX 15 12 2 13 1 15 3 16 4 18 9 19 5 20 8 21 6 22 10 23 7 24
REMARK SMILES IDX 11 25 14 26 12 27 13 28
REMARK H PARENT 15 14 3 17
REMARK Flexibility Score: inf
ROOT
ATOM      1  Cl  UNL     1     100.876   7.072  12.760  1.00  0.00    -0.084 Cl
ATOM      2  C   UNL     1      96.673   6.239  11.340  1.00  0.00     0.043 A 
ATOM      3  C   UNL     1      98.589   7.707  11.423  1.00  0.00     0.076 A 
ATOM      4  C   UNL     1      97.291   7.439  10.988  1.00  0.00    -0.025 A 
ATOM      5  C   UNL     1      97.352   5.308  12.125  1.00  0.00    -0.037 A 
ATOM      6  C   UNL     1      99.269   6.776  12.208  1.00  0.00     0.053 A 
ATOM      7  C   UNL     1      98.650   5.575  12.559  1.00  0.00    -0.041 A 
ENDROOT
BRANCH   3   8
ATOM      8  C   UNL     1      99.218   9.003  11.023  1.00  0.00     0.417 C 
ATOM      9  F   UNL     1      98.397   9.763  10.244  1.00  0.00    -0.166 F 
ATOM     10  F   UNL     1      99.555   9.794  12.084  1.00  0.00    -0.166 F 
ATOM     11  F   UNL     1     100.370   8.852  10.308  1.00  0.00    -0.166 F 
ENDBRANCH   3   8
BRANCH   2  12
ATOM     12  N   UNL     1      95.354   5.967  10.901  1.00  0.00    -0.308 N 
ATOM     13  C   UNL     1      94.175   6.653  11.232  1.00  0.00     0.323 C 
ATOM     14  H   UNL     1      95.260   5.177  10.269  1.00  0.00     0.171 HD
ATOM     15  O   UNL     1      94.105   7.625  11.977  1.00  0.00    -0.248 OA
ATOM     16  N   UNL     1      93.070   6.058  10.577  1.00  0.00    -0.308 N 
ATOM     17  H   UNL     1      93.281   5.255   9.989  1.00  0.00     0.171 HD
BRANCH  16  18
ATOM     18  C   UNL     1      91.724   6.425  10.631  1.00  0.00     0.046 A 
ATOM     19  C   UNL     1      90.945   6.043  11.725  1.00  0.00     0.008 A 
ATOM     20  C   UNL     1      91.165   7.175   9.581  1.00  0.00    -0.035 A 
ATOM     21  C   UNL     1      89.621   6.429  11.735  1.00  0.00     0.174 A 
ATOM     22  C   UNL     1      89.821   7.554   9.614  1.00  0.00    -0.014 A 
ATOM     23  O   UNL     1      88.716   6.150  12.713  1.00  0.00    -0.395 OA
ATOM     24  C   UNL     1      89.073   7.165  10.707  1.00  0.00     0.172 A 
ATOM     25  C   UNL     1      87.551   6.793  12.175  1.00  0.00     0.586 C 
ATOM     26  O   UNL     1      87.755   7.440  10.911  1.00  0.00    -0.395 OA
ATOM     27  F   UNL     1      87.113   7.715  13.069  1.00  0.00    -0.125 F 
ATOM     28  F   UNL     1      86.571   5.866  12.033  1.00  0.00    -0.125 F 
ENDBRANCH  16  18
ENDBRANCH   2  12
TORSDOF 3
