MODEL 1
REMARK VINA RESULT:   -11.832      0.000      0.000
REMARK INTER + INTRA:         -16.127
REMARK INTER:                 -16.468
REMARK INTRA:                   0.340
REMARK UNBOUND:                -0.837
REMARK SMILES CC(C)(C)c1cc(NC(=O)Nc2cccc(Cl)c2Cl)n(-c2ccc3c(c2)C[C@@H](C(:O):O)NC3)n1
REMARK SMILES IDX 34 1 20 2 7 3 6 4 5 5 8 6 11 8 9 9 10 10 12 12 18 13 13 14
REMARK SMILES IDX 16 15 19 16 14 17 17 18 15 19 21 20 22 21 26 22 23 23 25 24
REMARK SMILES IDX 24 25 27 26 33 27 28 28 32 29 29 31 30 32 31 33 2 34 1 35
REMARK SMILES IDX 3 36 4 37
REMARK H PARENT 11 7 8 11 32 30
REMARK Flexibility Score: inf
ROOT
ATOM      1  N   UNL     1      21.127  25.560  13.398  1.00  0.00    -0.170 NA
ATOM      2  N   UNL     1      20.861  24.412  12.638  1.00  0.00    -0.217 N 
ATOM      3  C   UNL     1      19.575  24.026  12.688  1.00  0.00     0.138 A 
ATOM      4  C   UNL     1      18.915  24.909  13.549  1.00  0.00     0.005 A 
ATOM      5  C   UNL     1      19.908  25.818  13.933  1.00  0.00     0.070 A 
ENDROOT
BRANCH   3   6
ATOM      6  N   UNL     1      19.193  22.919  12.036  1.00  0.00    -0.292 N 
ATOM      7  H   UNL     1      18.346  20.958  10.845  1.00  0.00     0.171 HD
ATOM      8  N   UNL     1      17.590  21.588  11.073  1.00  0.00    -0.306 N 
ATOM      9  C   UNL     1      17.909  22.725  11.717  1.00  0.00     0.324 C 
ATOM     10  O   UNL     1      17.059  23.579  11.975  1.00  0.00    -0.248 OA
ATOM     11  H   UNL     1      19.881  22.224  11.783  1.00  0.00     0.173 HD
BRANCH   8  12
ATOM     12  C   UNL     1      16.325  21.212  10.701  1.00  0.00     0.063 A 
ATOM     13  C   UNL     1      16.100  19.855  10.481  1.00  0.00     0.083 A 
ATOM     14  C   UNL     1      15.239  22.074  10.548  1.00  0.00    -0.037 A 
ATOM     15  C   UNL     1      14.884  19.288  10.117  1.00  0.00     0.061 A 
ATOM     16  Cl  UNL     1      17.500  18.826  10.711  1.00  0.00    -0.080 Cl
ATOM     17  C   UNL     1      14.002  21.536  10.183  1.00  0.00    -0.059 A 
ATOM     18  Cl  UNL     1      14.685  17.501   9.825  1.00  0.00    -0.083 Cl
ATOM     19  C   UNL     1      13.811  20.160   9.968  1.00  0.00    -0.042 A 
ENDBRANCH   8  12
ENDBRANCH   3   6
BRANCH   2  20
ATOM     20  C   UNL     1      21.870  23.882  11.943  1.00  0.00     0.067 A 
ATOM     21  C   UNL     1      23.088  23.626  12.570  1.00  0.00    -0.036 A 
ATOM     22  C   UNL     1      21.826  23.613  10.569  1.00  0.00    -0.033 A 
ATOM     23  C   UNL     1      24.173  23.137  11.882  1.00  0.00    -0.055 A 
ATOM     24  C   UNL     1      22.904  23.114   9.854  1.00  0.00    -0.039 A 
ATOM     25  C   UNL     1      24.081  22.868  10.533  1.00  0.00    -0.031 A 
ATOM     26  C   UNL     1      22.713  22.853   8.370  1.00  0.00    -0.001 C 
ATOM     27  C   UNL     1      25.301  22.307   9.857  1.00  0.00     0.022 C 
ATOM     28  C   UNL     1      23.866  22.066   7.750  1.00  0.00     0.115 C 
ATOM     29  N   UNL     1      25.100  22.421   8.428  1.00  0.00    -0.300 NA
ATOM     30  H   UNL     1      25.266  23.392   8.205  1.00  0.00     0.123 HD
BRANCH  28  31
ATOM     31  C   UNL     1      24.059  22.372   6.278  1.00  0.00     0.372 C 
ATOM     32  O   UNL     1      23.167  21.928   5.530  1.00  0.00    -0.246 OA
ATOM     33  O   UNL     1      25.038  23.022   5.823  1.00  0.00    -0.246 OA
ENDBRANCH  28  31
ENDBRANCH   2  20
BRANCH   5  34
ATOM     34  C   UNL     1      19.640  26.994  14.850  1.00  0.00     0.006 C 
ATOM     35  C   UNL     1      18.360  27.704  14.422  1.00  0.00    -0.054 C 
ATOM     36  C   UNL     1      20.830  27.945  14.800  1.00  0.00    -0.054 C 
ATOM     37  C   UNL     1      19.495  26.562  16.296  1.00  0.00    -0.054 C 
ENDBRANCH   5  34
TORSDOF 5
ENDMDL
MODEL 2
REMARK VINA RESULT:   -10.540      1.893      2.718
REMARK INTER + INTRA:         -14.458
REMARK INTER:                 -15.123
REMARK INTRA:                   0.665
REMARK UNBOUND:                -0.837
REMARK SMILES CC(C)(C)c1cc(NC(=O)Nc2cccc(Cl)c2Cl)n(-c2ccc3c(c2)C[C@@H](C(:O):O)NC3)n1
REMARK SMILES IDX 34 1 20 2 7 3 6 4 5 5 8 6 11 8 9 9 10 10 12 12 18 13 13 14
REMARK SMILES IDX 16 15 19 16 14 17 17 18 15 19 21 20 22 21 26 22 23 23 25 24
REMARK SMILES IDX 24 25 27 26 33 27 28 28 32 29 29 31 30 32 31 33 2 34 1 35
REMARK SMILES IDX 3 36 4 37
REMARK H PARENT 11 7 8 11 32 30
REMARK Flexibility Score: inf
ROOT
ATOM      1  N   UNL     1      21.224  25.550  13.736  1.00  0.00    -0.170 NA
ATOM      2  N   UNL     1      20.967  24.537  12.801  1.00  0.00    -0.217 N 
ATOM      3  C   UNL     1      19.721  24.043  12.879  1.00  0.00     0.138 A 
ATOM      4  C   UNL     1      19.085  24.701  13.937  1.00  0.00     0.005 A 
ATOM      5  C   UNL     1      20.045  25.607  14.403  1.00  0.00     0.070 A 
ENDROOT
BRANCH   3   6
ATOM      6  N   UNL     1      19.355  23.041  12.067  1.00  0.00    -0.292 N 
ATOM      7  H   UNL     1      18.538  21.264  10.599  1.00  0.00     0.171 HD
ATOM      8  N   UNL     1      17.767  21.804  10.966  1.00  0.00    -0.306 N 
ATOM      9  C   UNL     1      18.067  22.833  11.778  1.00  0.00     0.324 C 
ATOM     10  O   UNL     1      17.193  23.583  12.216  1.00  0.00    -0.248 OA
ATOM     11  H   UNL     1      20.060  22.437  11.668  1.00  0.00     0.173 HD
BRANCH   8  12
ATOM     12  C   UNL     1      16.502  21.427  10.593  1.00  0.00     0.063 A 
ATOM     13  C   UNL     1      16.263  20.063  10.435  1.00  0.00     0.083 A 
ATOM     14  C   UNL     1      15.430  22.294  10.384  1.00  0.00    -0.037 A 
ATOM     15  C   UNL     1      15.045  19.494  10.080  1.00  0.00     0.061 A 
ATOM     16  Cl  UNL     1      17.646  19.030  10.734  1.00  0.00    -0.080 Cl
ATOM     17  C   UNL     1      14.191  21.755  10.027  1.00  0.00    -0.059 A 
ATOM     18  Cl  UNL     1      14.827  17.699   9.870  1.00  0.00    -0.083 Cl
ATOM     19  C   UNL     1      13.985  20.372   9.874  1.00  0.00    -0.042 A 
ENDBRANCH   8  12
ENDBRANCH   3   6
BRANCH   2  20
ATOM     20  C   UNL     1      21.942  24.225  11.944  1.00  0.00     0.067 A 
ATOM     21  C   UNL     1      21.627  23.689  10.696  1.00  0.00    -0.036 A 
ATOM     22  C   UNL     1      23.309  24.334  12.230  1.00  0.00    -0.033 A 
ATOM     23  C   UNL     1      22.598  23.297   9.806  1.00  0.00    -0.055 A 
ATOM     24  C   UNL     1      24.307  23.952  11.347  1.00  0.00    -0.039 A 
ATOM     25  C   UNL     1      23.932  23.440  10.120  1.00  0.00    -0.031 A 
ATOM     26  C   UNL     1      25.750  24.140  11.779  1.00  0.00    -0.001 C 
ATOM     27  C   UNL     1      24.935  23.017   9.082  1.00  0.00     0.022 C 
ATOM     28  C   UNL     1      26.747  23.937  10.640  1.00  0.00     0.115 C 
ATOM     29  N   UNL     1      26.226  22.932   9.730  1.00  0.00    -0.300 NA
ATOM     30  H   UNL     1      26.213  22.069  10.255  1.00  0.00     0.123 HD
BRANCH  28  31
ATOM     31  C   UNL     1      28.097  23.448  11.123  1.00  0.00     0.372 C 
ATOM     32  O   UNL     1      28.973  23.373  10.240  1.00  0.00    -0.246 OA
ATOM     33  O   UNL     1      28.339  23.136  12.319  1.00  0.00    -0.246 OA
ENDBRANCH  28  31
ENDBRANCH   2  20
BRANCH   5  34
ATOM     34  C   UNL     1      19.783  26.575  15.539  1.00  0.00     0.006 C 
ATOM     35  C   UNL     1      21.069  26.810  16.326  1.00  0.00    -0.054 C 
ATOM     36  C   UNL     1      18.694  26.002  16.439  1.00  0.00    -0.054 C 
ATOM     37  C   UNL     1      19.270  27.909  15.038  1.00  0.00    -0.054 C 
ENDBRANCH   5  34
TORSDOF 5
ENDMDL
MODEL 3
REMARK VINA RESULT:    -9.336      5.202      8.345
REMARK INTER + INTRA:         -12.902
REMARK INTER:                 -11.694
REMARK INTRA:                  -1.207
REMARK UNBOUND:                -0.837
REMARK SMILES CC(C)(C)c1cc(NC(=O)Nc2cccc(Cl)c2Cl)n(-c2ccc3c(c2)C[C@@H](C(:O):O)NC3)n1
REMARK SMILES IDX 34 1 20 2 7 3 6 4 5 5 8 6 11 8 9 9 10 10 12 12 18 13 13 14
REMARK SMILES IDX 16 15 19 16 14 17 17 18 15 19 21 20 22 21 26 22 23 23 25 24
REMARK SMILES IDX 24 25 27 26 33 27 28 28 32 29 29 31 30 32 31 33 2 34 1 35
REMARK SMILES IDX 3 36 4 37
REMARK H PARENT 11 7 8 11 32 30
REMARK Flexibility Score: inf
ROOT
ATOM      1  N   UNL     1      21.091  24.852  13.665  1.00  0.00    -0.170 NA
ATOM      2  N   UNL     1      22.258  25.320  13.044  1.00  0.00    -0.217 N 
ATOM      3  C   UNL     1      22.609  26.557  13.432  1.00  0.00     0.138 A 
ATOM      4  C   UNL     1      21.631  26.997  14.331  1.00  0.00     0.005 A 
ATOM      5  C   UNL     1      20.751  25.915  14.436  1.00  0.00     0.070 A 
ENDROOT
BRANCH   3   6
ATOM      6  N   UNL     1      23.686  27.140  12.886  1.00  0.00    -0.292 N 
ATOM      7  H   UNL     1      25.732  28.161  12.021  1.00  0.00     0.171 HD
ATOM      8  N   UNL     1      25.881  27.803  12.953  1.00  0.00    -0.306 N 
ATOM      9  C   UNL     1      24.843  27.195  13.553  1.00  0.00     0.324 C 
ATOM     10  O   UNL     1      24.957  26.672  14.663  1.00  0.00    -0.248 OA
ATOM     11  H   UNL     1      23.623  27.541  11.962  1.00  0.00     0.173 HD
BRANCH   8  12
ATOM     12  C   UNL     1      27.126  27.980  13.502  1.00  0.00     0.063 A 
ATOM     13  C   UNL     1      28.111  27.055  13.161  1.00  0.00     0.083 A 
ATOM     14  C   UNL     1      27.493  29.022  14.352  1.00  0.00    -0.037 A 
ATOM     15  C   UNL     1      29.429  27.081  13.603  1.00  0.00     0.061 A 
ATOM     16  Cl  UNL     1      27.589  25.785  12.073  1.00  0.00    -0.080 Cl
ATOM     17  C   UNL     1      28.811  29.079  14.814  1.00  0.00    -0.059 A 
ATOM     18  Cl  UNL     1      30.647  25.814  13.127  1.00  0.00    -0.083 Cl
ATOM     19  C   UNL     1      29.779  28.127  14.451  1.00  0.00    -0.042 A 
ENDBRANCH   8  12
ENDBRANCH   3   6
BRANCH   2  20
ATOM     20  C   UNL     1      22.885  24.494  12.203  1.00  0.00     0.067 A 
ATOM     21  C   UNL     1      24.072  23.874  12.592  1.00  0.00    -0.036 A 
ATOM     22  C   UNL     1      22.470  24.240  10.890  1.00  0.00    -0.033 A 
ATOM     23  C   UNL     1      24.783  23.064  11.739  1.00  0.00    -0.055 A 
ATOM     24  C   UNL     1      23.166  23.423  10.013  1.00  0.00    -0.039 A 
ATOM     25  C   UNL     1      24.328  22.826  10.460  1.00  0.00    -0.031 A 
ATOM     26  C   UNL     1      22.593  23.221   8.621  1.00  0.00    -0.001 C 
ATOM     27  C   UNL     1      25.145  21.904   9.597  1.00  0.00     0.022 C 
ATOM     28  C   UNL     1      23.291  22.107   7.844  1.00  0.00     0.115 C 
ATOM     29  N   UNL     1      24.688  22.063   8.233  1.00  0.00    -0.300 NA
ATOM     30  H   UNL     1      25.091  22.931   7.909  1.00  0.00     0.123 HD
BRANCH  28  31
ATOM     31  C   UNL     1      23.249  22.324   6.344  1.00  0.00     0.372 C 
ATOM     32  O   UNL     1      24.054  23.174   5.916  1.00  0.00    -0.246 OA
ATOM     33  O   UNL     1      22.470  21.706   5.571  1.00  0.00    -0.246 OA
ENDBRANCH  28  31
ENDBRANCH   2  20
BRANCH   5  34
ATOM     34  C   UNL     1      19.536  25.923  15.341  1.00  0.00     0.006 C 
ATOM     35  C   UNL     1      19.295  24.525  15.899  1.00  0.00    -0.054 C 
ATOM     36  C   UNL     1      18.328  26.407  14.547  1.00  0.00    -0.054 C 
ATOM     37  C   UNL     1      19.702  26.886  16.500  1.00  0.00    -0.054 C 
ENDBRANCH   5  34
TORSDOF 5
ENDMDL
MODEL 4
REMARK VINA RESULT:    -8.964      4.781      6.667
REMARK INTER + INTRA:         -12.421
REMARK INTER:                 -11.891
REMARK INTRA:                  -0.530
REMARK UNBOUND:                -0.837
REMARK SMILES CC(C)(C)c1cc(NC(=O)Nc2cccc(Cl)c2Cl)n(-c2ccc3c(c2)C[C@@H](C(:O):O)NC3)n1
REMARK SMILES IDX 34 1 20 2 7 3 6 4 5 5 8 6 11 8 9 9 10 10 12 12 18 13 13 14
REMARK SMILES IDX 16 15 19 16 14 17 17 18 15 19 21 20 22 21 26 22 23 23 25 24
REMARK SMILES IDX 24 25 27 26 33 27 28 28 32 29 29 31 30 32 31 33 2 34 1 35
REMARK SMILES IDX 3 36 4 37
REMARK H PARENT 11 7 8 11 32 30
REMARK Flexibility Score: inf
ROOT
ATOM      1  N   UNL     1      27.006  25.901  11.087  1.00  0.00    -0.170 NA
ATOM      2  N   UNL     1      25.623  25.682  11.019  1.00  0.00    -0.217 N 
ATOM      3  C   UNL     1      24.910  26.532  11.776  1.00  0.00     0.138 A 
ATOM      4  C   UNL     1      25.826  27.358  12.437  1.00  0.00     0.005 A 
ATOM      5  C   UNL     1      27.073  26.932  11.966  1.00  0.00     0.070 A 
ENDROOT
BRANCH   3   6
ATOM      6  N   UNL     1      23.577  26.407  11.833  1.00  0.00    -0.292 N 
ATOM      7  H   UNL     1      21.153  26.216  12.092  1.00  0.00     0.171 HD
ATOM      8  N   UNL     1      21.591  26.404  12.983  1.00  0.00    -0.306 N 
ATOM      9  C   UNL     1      22.927  26.553  12.992  1.00  0.00     0.324 C 
ATOM     10  O   UNL     1      23.535  26.849  14.023  1.00  0.00    -0.248 OA
ATOM     11  H   UNL     1      23.057  26.201  10.992  1.00  0.00     0.173 HD
BRANCH   8  12
ATOM     12  C   UNL     1      20.773  26.485  14.080  1.00  0.00     0.063 A 
ATOM     13  C   UNL     1      20.384  25.289  14.678  1.00  0.00     0.083 A 
ATOM     14  C   UNL     1      20.320  27.669  14.662  1.00  0.00    -0.037 A 
ATOM     15  C   UNL     1      19.575  25.174  15.803  1.00  0.00     0.061 A 
ATOM     16  Cl  UNL     1      21.006  23.842  13.910  1.00  0.00    -0.080 Cl
ATOM     17  C   UNL     1      19.506  27.590  15.796  1.00  0.00    -0.059 A 
ATOM     18  Cl  UNL     1      19.093  23.564  16.504  1.00  0.00    -0.083 Cl
ATOM     19  C   UNL     1      19.130  26.364  16.372  1.00  0.00    -0.042 A 
ENDBRANCH   8  12
ENDBRANCH   3   6
BRANCH   2  20
ATOM     20  C   UNL     1      25.189  24.717  10.205  1.00  0.00     0.067 A 
ATOM     21  C   UNL     1      24.782  23.492  10.732  1.00  0.00    -0.036 A 
ATOM     22  C   UNL     1      25.169  24.813   8.808  1.00  0.00    -0.033 A 
ATOM     23  C   UNL     1      24.385  22.450   9.929  1.00  0.00    -0.055 A 
ATOM     24  C   UNL     1      24.766  23.779   7.977  1.00  0.00    -0.039 A 
ATOM     25  C   UNL     1      24.362  22.593   8.558  1.00  0.00    -0.031 A 
ATOM     26  C   UNL     1      24.779  24.025   6.478  1.00  0.00    -0.001 C 
ATOM     27  C   UNL     1      23.886  21.419   7.749  1.00  0.00     0.022 C 
ATOM     28  C   UNL     1      24.074  22.925   5.687  1.00  0.00     0.115 C 
ATOM     29  N   UNL     1      24.258  21.658   6.371  1.00  0.00    -0.300 NA
ATOM     30  H   UNL     1      25.247  21.459   6.316  1.00  0.00     0.123 HD
BRANCH  28  31
ATOM     31  C   UNL     1      24.628  22.764   4.286  1.00  0.00     0.372 C 
ATOM     32  O   UNL     1      25.833  22.449   4.233  1.00  0.00    -0.246 OA
ATOM     33  O   UNL     1      23.944  22.931   3.241  1.00  0.00    -0.246 OA
ENDBRANCH  28  31
ENDBRANCH   2  20
BRANCH   5  34
ATOM     34  C   UNL     1      28.379  27.574  12.388  1.00  0.00     0.006 C 
ATOM     35  C   UNL     1      29.263  26.544  13.082  1.00  0.00    -0.054 C 
ATOM     36  C   UNL     1      28.078  28.745  13.317  1.00  0.00    -0.054 C 
ATOM     37  C   UNL     1      29.136  28.147  11.206  1.00  0.00    -0.054 C 
ENDBRANCH   5  34
TORSDOF 5
ENDMDL
MODEL 5
REMARK VINA RESULT:    -8.937      5.546      8.315
REMARK INTER + INTRA:         -12.386
REMARK INTER:                 -11.887
REMARK INTRA:                  -0.499
REMARK UNBOUND:                -0.837
REMARK SMILES CC(C)(C)c1cc(NC(=O)Nc2cccc(Cl)c2Cl)n(-c2ccc3c(c2)C[C@@H](C(:O):O)NC3)n1
REMARK SMILES IDX 34 1 20 2 7 3 6 4 5 5 8 6 11 8 9 9 10 10 12 12 18 13 13 14
REMARK SMILES IDX 16 15 19 16 14 17 17 18 15 19 21 20 22 21 26 22 23 23 25 24
REMARK SMILES IDX 24 25 27 26 33 27 28 28 32 29 29 31 30 32 31 33 2 34 1 35
REMARK SMILES IDX 3 36 4 37
REMARK H PARENT 11 7 8 11 32 30
REMARK Flexibility Score: inf
ROOT
ATOM      1  N   UNL     1      27.137  25.584   9.505  1.00  0.00    -0.170 NA
ATOM      2  N   UNL     1      25.776  25.904   9.615  1.00  0.00    -0.217 N 
ATOM      3  C   UNL     1      25.263  25.646  10.829  1.00  0.00     0.138 A 
ATOM      4  C   UNL     1      26.289  25.084  11.596  1.00  0.00     0.005 A 
ATOM      5  C   UNL     1      27.397  25.086  10.740  1.00  0.00     0.070 A 
ENDROOT
BRANCH   3   6
ATOM      6  N   UNL     1      23.961  25.870  11.057  1.00  0.00    -0.292 N 
ATOM      7  H   UNL     1      21.623  26.306  11.626  1.00  0.00     0.171 HD
ATOM      8  N   UNL     1      22.201  26.335  12.454  1.00  0.00    -0.306 N 
ATOM      9  C   UNL     1      23.520  26.130  12.292  1.00  0.00     0.324 C 
ATOM     10  O   UNL     1      24.306  26.214  13.237  1.00  0.00    -0.248 OA
ATOM     11  H   UNL     1      23.306  25.842  10.288  1.00  0.00     0.173 HD
BRANCH   8  12
ATOM     12  C   UNL     1      21.575  26.580  13.649  1.00  0.00     0.063 A 
ATOM     13  C   UNL     1      20.976  25.498  14.290  1.00  0.00     0.083 A 
ATOM     14  C   UNL     1      21.510  27.818  14.287  1.00  0.00    -0.037 A 
ATOM     15  C   UNL     1      20.313  25.550  15.511  1.00  0.00     0.061 A 
ATOM     16  Cl  UNL     1      21.113  23.969  13.445  1.00  0.00    -0.080 Cl
ATOM     17  C   UNL     1      20.852  27.906  15.517  1.00  0.00    -0.059 A 
ATOM     18  Cl  UNL     1      19.534  24.087  16.266  1.00  0.00    -0.083 Cl
ATOM     19  C   UNL     1      20.256  26.792  16.135  1.00  0.00    -0.042 A 
ENDBRANCH   8  12
ENDBRANCH   3   6
BRANCH   2  20
ATOM     20  C   UNL     1      25.181  26.449   8.551  1.00  0.00     0.067 A 
ATOM     21  C   UNL     1      24.474  25.644   7.660  1.00  0.00    -0.036 A 
ATOM     22  C   UNL     1      25.268  27.804   8.206  1.00  0.00    -0.033 A 
ATOM     23  C   UNL     1      23.897  26.152   6.520  1.00  0.00    -0.055 A 
ATOM     24  C   UNL     1      24.690  28.341   7.067  1.00  0.00    -0.039 A 
ATOM     25  C   UNL     1      23.990  27.496   6.229  1.00  0.00    -0.031 A 
ATOM     26  C   UNL     1      24.848  29.832   6.824  1.00  0.00    -0.001 C 
ATOM     27  C   UNL     1      23.307  27.980   4.980  1.00  0.00     0.022 C 
ATOM     28  C   UNL     1      23.958  30.351   5.696  1.00  0.00     0.115 C 
ATOM     29  N   UNL     1      23.806  29.309   4.697  1.00  0.00    -0.300 NA
ATOM     30  H   UNL     1      24.724  29.177   4.297  1.00  0.00     0.123 HD
BRANCH  28  31
ATOM     31  C   UNL     1      24.544  31.561   4.997  1.00  0.00     0.372 C 
ATOM     32  O   UNL     1      23.811  32.069   4.127  1.00  0.00    -0.246 OA
ATOM     33  O   UNL     1      25.682  32.034   5.258  1.00  0.00    -0.246 OA
ENDBRANCH  28  31
ENDBRANCH   2  20
BRANCH   5  34
ATOM     34  C   UNL     1      28.766  24.593  11.161  1.00  0.00     0.006 C 
ATOM     35  C   UNL     1      28.625  23.568  12.281  1.00  0.00    -0.054 C 
ATOM     36  C   UNL     1      29.604  25.782  11.616  1.00  0.00    -0.054 C 
ATOM     37  C   UNL     1      29.515  23.953  10.009  1.00  0.00    -0.054 C 
ENDBRANCH   5  34
TORSDOF 5
ENDMDL
MODEL 6
REMARK VINA RESULT:    -8.906      6.106      8.125
REMARK INTER + INTRA:         -12.346
REMARK INTER:                 -11.517
REMARK INTRA:                  -0.829
REMARK UNBOUND:                -0.837
REMARK SMILES CC(C)(C)c1cc(NC(=O)Nc2cccc(Cl)c2Cl)n(-c2ccc3c(c2)C[C@@H](C(:O):O)NC3)n1
REMARK SMILES IDX 34 1 20 2 7 3 6 4 5 5 8 6 11 8 9 9 10 10 12 12 18 13 13 14
REMARK SMILES IDX 16 15 19 16 14 17 17 18 15 19 21 20 22 21 26 22 23 23 25 24
REMARK SMILES IDX 24 25 27 26 33 27 28 28 32 29 29 31 30 32 31 33 2 34 1 35
REMARK SMILES IDX 3 36 4 37
REMARK H PARENT 11 7 8 11 32 30
REMARK Flexibility Score: inf
ROOT
ATOM      1  N   UNL     1      27.462  27.773  10.758  1.00  0.00    -0.170 NA
ATOM      2  N   UNL     1      26.064  27.782  10.642  1.00  0.00    -0.217 N 
ATOM      3  C   UNL     1      25.432  27.915  11.819  1.00  0.00     0.138 A 
ATOM      4  C   UNL     1      26.418  27.961  12.810  1.00  0.00     0.005 A 
ATOM      5  C   UNL     1      27.622  27.882  12.100  1.00  0.00     0.070 A 
ENDROOT
BRANCH   3   6
ATOM      6  N   UNL     1      24.092  27.901  11.854  1.00  0.00    -0.292 N 
ATOM      7  H   UNL     1      21.657  27.755  12.025  1.00  0.00     0.171 HD
ATOM      8  N   UNL     1      22.095  27.037  12.585  1.00  0.00    -0.306 N 
ATOM      9  C   UNL     1      23.440  27.006  12.602  1.00  0.00     0.324 C 
ATOM     10  O   UNL     1      24.055  26.206  13.309  1.00  0.00    -0.248 OA
ATOM     11  H   UNL     1      23.569  28.572  11.310  1.00  0.00     0.173 HD
BRANCH   8  12
ATOM     12  C   UNL     1      21.270  26.177  13.262  1.00  0.00     0.063 A 
ATOM     13  C   UNL     1      20.665  26.653  14.423  1.00  0.00     0.083 A 
ATOM     14  C   UNL     1      20.966  24.874  12.870  1.00  0.00    -0.037 A 
ATOM     15  C   UNL     1      19.788  25.935  15.229  1.00  0.00     0.061 A 
ATOM     16  Cl  UNL     1      21.073  28.304  14.846  1.00  0.00    -0.080 Cl
ATOM     17  C   UNL     1      20.086  24.124  13.656  1.00  0.00    -0.059 A 
ATOM     18  Cl  UNL     1      19.062  26.629  16.748  1.00  0.00    -0.083 Cl
ATOM     19  C   UNL     1      19.496  24.636  14.825  1.00  0.00    -0.042 A 
ENDBRANCH   8  12
ENDBRANCH   3   6
BRANCH   2  20
ATOM     20  C   UNL     1      25.545  27.704   9.414  1.00  0.00     0.067 A 
ATOM     21  C   UNL     1      25.228  26.461   8.870  1.00  0.00    -0.036 A 
ATOM     22  C   UNL     1      25.347  28.805   8.570  1.00  0.00    -0.033 A 
ATOM     23  C   UNL     1      24.748  26.329   7.588  1.00  0.00    -0.055 A 
ATOM     24  C   UNL     1      24.858  28.698   7.277  1.00  0.00    -0.039 A 
ATOM     25  C   UNL     1      24.549  27.440   6.798  1.00  0.00    -0.031 A 
ATOM     26  C   UNL     1      24.677  29.976   6.477  1.00  0.00    -0.001 C 
ATOM     27  C   UNL     1      23.993  27.216   5.419  1.00  0.00     0.022 C 
ATOM     28  C   UNL     1      23.894  29.764   5.183  1.00  0.00     0.115 C 
ATOM     29  N   UNL     1      24.184  28.438   4.667  1.00  0.00    -0.300 NA
ATOM     30  H   UNL     1      25.160  28.451   4.410  1.00  0.00     0.123 HD
BRANCH  28  31
ATOM     31  C   UNL     1      24.269  30.757   4.102  1.00  0.00     0.372 C 
ATOM     32  O   UNL     1      25.280  30.454   3.440  1.00  0.00    -0.246 OA
ATOM     33  O   UNL     1      23.624  31.815   3.873  1.00  0.00    -0.246 OA
ENDBRANCH  28  31
ENDBRANCH   2  20
BRANCH   5  34
ATOM     34  C   UNL     1      28.979  27.931  12.770  1.00  0.00     0.006 C 
ATOM     35  C   UNL     1      28.920  28.835  13.997  1.00  0.00    -0.054 C 
ATOM     36  C   UNL     1      30.009  28.443  11.769  1.00  0.00    -0.054 C 
ATOM     37  C   UNL     1      29.447  26.556  13.202  1.00  0.00    -0.054 C 
ENDBRANCH   5  34
TORSDOF 5
ENDMDL
