REMARK SMILES CC(=O)N(C)[C@H](CO)C(=O)N[C@H](C)C(=O)NCC(=O)N(C)[C@@H]1C(=O)N[C@@H](C)C(=O)N[C@H](C(=O)[O-])Cc2ccc(O)c(c2)-c2cc1ccc2O
REMARK SMILES IDX 18 1 19 2 17 3 16 4 14 5 15 6 12 7 13 8 11 9 9 10 10 11 6 12
REMARK SMILES IDX 4 13 5 14 2 15 3 16 1 17 7 18 8 19 20 20 21 21 22 22 23 23
REMARK SMILES IDX 24 24 25 25 26 26 27 27 45 29 44 30 46 31 43 32 47 33 48 34
REMARK SMILES IDX 49 35 41 36 42 37 39 38 36 39 38 40 40 41 37 42 35 43 31 44
REMARK SMILES IDX 30 45 28 46 29 47 32 49 33 50 34 51
REMARK H PARENT
REMARK Flexibility Score: 80.00
ROOT
ATOM      1  C   UNL     1      -3.828  49.001   7.653  1.00  0.00     0.242 C 
ATOM      2  O   UNL     1      -4.013  49.545   8.741  1.00  0.00    -0.273 OA
ENDROOT
BRANCH   1   3
ATOM      3  C   UNL     1      -4.198  49.718   6.352  1.00  0.00     0.097 C 
BRANCH   3   4
ATOM      4  N   UNL     1      -4.739  51.066   6.584  1.00  0.00    -0.345 N 
ATOM      5  C   UNL     1      -4.013  52.029   7.141  1.00  0.00     0.242 C 
ATOM      6  O   UNL     1      -2.856  51.870   7.531  1.00  0.00    -0.273 OA
BRANCH   5   7
ATOM      7  C   UNL     1      -4.692  53.391   7.279  1.00  0.00     0.105 C 
ATOM      8  C   UNL     1      -5.242  53.560   8.698  1.00  0.00    -0.036 C 
BRANCH   7   9
ATOM      9  N   UNL     1      -3.656  54.398   7.001  1.00  0.00    -0.343 N 
ATOM     10  C   UNL     1      -3.377  54.827   5.772  1.00  0.00     0.245 C 
ATOM     11  O   UNL     1      -3.983  54.474   4.761  1.00  0.00    -0.273 OA
BRANCH  10  12
ATOM     12  C   UNL     1      -2.224  55.833   5.695  1.00  0.00     0.133 C 
BRANCH  12  13
ATOM     13  N   UNL     1      -2.450  56.899   4.705  1.00  0.00    -0.332 N 
ATOM     14  C   UNL     1      -3.179  56.710   3.439  1.00  0.00     0.010 C 
BRANCH  13  15
ATOM     15  C   UNL     1      -1.943  58.108   4.939  1.00  0.00     0.219 C 
ATOM     16  O   UNL     1      -1.287  58.373   5.948  1.00  0.00    -0.275 OA
ATOM     17  C   UNL     1      -2.193  59.194   3.888  1.00  0.00     0.015 C 
ENDBRANCH  13  15
ENDBRANCH  12  13
BRANCH  12  18
ATOM     18  C   UNL     1      -0.931  55.086   5.361  1.00  0.00     0.073 C 
ATOM     19  O   UNL     1      -1.010  54.542   4.041  1.00  0.00    -0.394 OA
ENDBRANCH  12  18
ENDBRANCH  10  12
ENDBRANCH   7   9
ENDBRANCH   5   7
ENDBRANCH   3   4
ENDBRANCH   1   3
BRANCH   1  20
ATOM     20  N   UNL     1      -3.261  47.803   7.526  1.00  0.00    -0.328 N 
ATOM     21  C   UNL     1      -2.978  47.333   6.161  1.00  0.00     0.010 C 
BRANCH  20  22
ATOM     22  C   UNL     1      -2.933  47.023   8.730  1.00  0.00     0.136 C 
BRANCH  22  23
ATOM     23  C   UNL     1      -1.423  46.933   8.966  1.00  0.00     0.248 C 
ATOM     24  O   UNL     1      -0.611  47.311   8.124  1.00  0.00    -0.272 OA
ATOM     25  N   UNL     1      -1.109  46.368  10.129  1.00  0.00    -0.342 N 
BRANCH  25  26
ATOM     26  C   UNL     1       0.259  46.110  10.600  1.00  0.00     0.105 CG0
ATOM     27  C   UNL     1       0.736  47.252  11.502  1.00  0.00    -0.036 C 
ATOM     28  G   UNL     1       0.199  44.804  11.394  1.00  0.00     0.000 G0
ENDBRANCH  25  26
ENDBRANCH  22  23
BRANCH  22  29
ATOM     29  C   UNL     1      -3.497  45.606   8.584  1.00  0.00    -0.015 A 
ATOM     30  C   UNL     1      -2.624  44.524   8.507  1.00  0.00    -0.045 A 
ATOM     31  C   UNL     1      -4.868  45.384   8.510  1.00  0.00    -0.053 A 
ATOM     32  C   UNL     1      -3.093  43.222   8.364  1.00  0.00     0.028 A 
ATOM     33  C   UNL     1      -5.346  44.085   8.354  1.00  0.00    -0.019 A 
ATOM     34  C   UNL     1      -4.469  43.007   8.279  1.00  0.00     0.123 A 
ATOM     35  O   UNL     1      -4.965  41.750   8.126  1.00  0.00    -0.507 OA
BRANCH  32  36
ATOM     36  C   UNL     1      -2.165  42.186   8.366  1.00  0.00     0.027 A 
ATOM     37  C   UNL     1      -1.147  42.216   9.316  1.00  0.00    -0.047 A 
ATOM     38  C   UNL     1      -2.158  41.183   7.396  1.00  0.00     0.123 A 
ATOM     39  C   UNL     1      -0.125  41.273   9.311  1.00  0.00    -0.045 A 
ATOM     40  C   UNL     1      -1.139  40.234   7.387  1.00  0.00    -0.019 A 
ATOM     41  O   UNL     1      -3.131  41.133   6.449  1.00  0.00    -0.507 OA
ATOM     42  C   UNL     1      -0.125  40.275   8.338  1.00  0.00    -0.055 A 
BRANCH  39  43
ATOM     43  C   UNL     1       1.003  41.335  10.346  1.00  0.00    -0.002 C 
BRANCH  43  44
ATOM     44  C   UNL     1       0.787  42.399  11.427  1.00  0.00     0.073 C 
BRANCH  44  45
ATOM     45  N   UNL     1       0.786  43.744  10.829  1.00  0.00    -0.346 N 
ATOM     46  C   UNL     1       0.206  44.795  11.401  1.00  0.00     0.242 CG0
ATOM     47  O   UNL     1      -0.395  44.748  12.473  1.00  0.00    -0.273 OA
ATOM     48  G   UNL     1       0.289  46.105  10.614  1.00  0.00     0.000 G0
ENDBRANCH  44  45
BRANCH  44  49
ATOM     49  C   UNL     1       1.874  42.267  12.496  1.00  0.00     0.064 C 
ATOM     50  O   UNL     1       1.843  41.329  13.293  1.00  0.00    -0.548 OA
ATOM     51  O   UNL     1       2.784  43.090  12.569  1.00  0.00    -0.548 OA
ENDBRANCH  44  49
ENDBRANCH  43  44
ENDBRANCH  39  43
ENDBRANCH  32  36
ENDBRANCH  22  29
ENDBRANCH  20  22
ENDBRANCH   1  20
TORSDOF 11
