MODEL 1
REMARK VINA RESULT:   -10.404      0.000      0.000
REMARK INTER + INTRA:         -13.263
REMARK INTER:                 -12.314
REMARK INTRA:                  -0.949
REMARK UNBOUND:                 8.088
REMARK SMILES CC(=O)N(C)[C@H](CO)C(=O)N[C@H](C)C(=O)NCC(=O)N(C)[C@@H]1C(=O)N[C@@H](C)C(=O)N[C@H](C(=O)[O-])Cc2ccc(O)c(c2)-c2cc1ccc2O
REMARK SMILES IDX 18 1 19 2 17 3 16 4 14 5 15 6 12 7 13 8 11 9 9 10 10 11 6 12
REMARK SMILES IDX 4 13 5 14 2 15 3 16 1 17 7 18 8 19 20 20 21 21 22 22 23 23
REMARK SMILES IDX 24 24 25 25 26 26 27 27 45 29 44 30 46 31 43 32 47 33 48 34
REMARK SMILES IDX 49 35 41 36 42 37 39 38 36 39 38 40 40 41 37 42 35 43 31 44
REMARK SMILES IDX 30 45 28 46 29 47 32 49 33 50 34 51
REMARK H PARENT
REMARK Flexibility Score: 80.00
ROOT
ATOM      1  C   UNL     1       0.565  31.839  13.193  1.00  0.00     0.242 C 
ATOM      2  O   UNL     1       0.166  31.739  14.352  1.00  0.00    -0.273 OA
ENDROOT
BRANCH   1   3
ATOM      3  C   UNL     1       1.278  30.667  12.512  1.00  0.00     0.097 C 
BRANCH   3   4
ATOM      4  N   UNL     1       2.570  30.351  13.140  1.00  0.00    -0.345 N 
ATOM      5  C   UNL     1       3.726  30.677  12.572  1.00  0.00     0.242 C 
ATOM      6  O   UNL     1       3.814  31.232  11.477  1.00  0.00    -0.273 OA
BRANCH   5   7
ATOM      7  C   UNL     1       4.987  30.324  13.361  1.00  0.00     0.105 C 
ATOM      8  C   UNL     1       6.191  31.076  12.786  1.00  0.00    -0.036 C 
BRANCH   7   9
ATOM      9  N   UNL     1       4.732  30.738  14.749  1.00  0.00    -0.343 N 
ATOM     10  C   UNL     1       5.251  30.104  15.799  1.00  0.00     0.245 C 
ATOM     11  O   UNL     1       6.029  29.154  15.719  1.00  0.00    -0.273 OA
BRANCH  10  12
ATOM     12  C   UNL     1       4.814  30.659  17.158  1.00  0.00     0.133 C 
BRANCH  12  13
ATOM     13  N   UNL     1       3.485  30.185  17.578  1.00  0.00    -0.332 N 
ATOM     14  C   UNL     1       2.215  30.771  17.115  1.00  0.00     0.010 C 
BRANCH  13  15
ATOM     15  C   UNL     1       3.409  29.185  18.454  1.00  0.00     0.219 C 
ATOM     16  O   UNL     1       4.400  28.579  18.863  1.00  0.00    -0.275 OA
ATOM     17  C   UNL     1       2.017  28.801  18.967  1.00  0.00     0.015 C 
ENDBRANCH  13  15
ENDBRANCH  12  13
BRANCH  12  18
ATOM     18  C   UNL     1       4.821  32.189  17.099  1.00  0.00     0.073 C 
ATOM     19  O   UNL     1       5.333  32.720  18.324  1.00  0.00    -0.394 OA
ENDBRANCH  12  18
ENDBRANCH  10  12
ENDBRANCH   7   9
ENDBRANCH   5   7
ENDBRANCH   3   4
ENDBRANCH   1   3
BRANCH   1  20
ATOM     20  N   UNL     1       0.368  32.924  12.447  1.00  0.00    -0.328 N 
ATOM     21  C   UNL     1      -0.779  32.909  11.526  1.00  0.00     0.010 C 
BRANCH  20  22
ATOM     22  C   UNL     1       1.276  34.074  12.584  1.00  0.00     0.136 C 
BRANCH  22  23
ATOM     23  C   UNL     1       0.662  35.197  13.424  1.00  0.00     0.248 C 
ATOM     24  O   UNL     1      -0.300  35.002  14.163  1.00  0.00    -0.272 OA
ATOM     25  N   UNL     1       1.245  36.376  13.223  1.00  0.00    -0.342 N 
BRANCH  25  26
ATOM     26  C   UNL     1       0.836  37.638  13.857  1.00  0.00     0.105 CG0
ATOM     27  C   UNL     1       1.013  37.552  15.376  1.00  0.00    -0.036 C 
ATOM     28  G   UNL     1       1.751  38.722  13.282  1.00  0.00     0.000 G0
ENDBRANCH  25  26
ENDBRANCH  22  23
BRANCH  22  29
ATOM     29  C   UNL     1       1.611  34.622  11.193  1.00  0.00    -0.015 A 
ATOM     30  C   UNL     1       1.065  35.835  10.782  1.00  0.00    -0.045 A 
ATOM     31  C   UNL     1       2.440  33.918  10.325  1.00  0.00    -0.053 A 
ATOM     32  C   UNL     1       1.334  36.364   9.524  1.00  0.00     0.028 A 
ATOM     33  C   UNL     1       2.706  34.434   9.059  1.00  0.00    -0.019 A 
ATOM     34  C   UNL     1       2.158  35.648   8.655  1.00  0.00     0.123 A 
ATOM     35  O   UNL     1       2.434  36.127   7.412  1.00  0.00    -0.507 OA
BRANCH  32  36
ATOM     36  C   UNL     1       0.810  37.614   9.212  1.00  0.00     0.027 A 
ATOM     37  C   UNL     1       1.252  38.715   9.941  1.00  0.00    -0.047 A 
ATOM     38  C   UNL     1      -0.207  37.788   8.273  1.00  0.00     0.123 A 
ATOM     39  C   UNL     1       0.697  39.976   9.757  1.00  0.00    -0.045 A 
ATOM     40  C   UNL     1      -0.767  39.048   8.081  1.00  0.00    -0.019 A 
ATOM     41  O   UNL     1      -0.668  36.732   7.553  1.00  0.00    -0.507 OA
ATOM     42  C   UNL     1      -0.320  40.140   8.818  1.00  0.00    -0.055 A 
BRANCH  39  43
ATOM     43  C   UNL     1       1.175  41.172  10.586  1.00  0.00    -0.002 C 
BRANCH  43  44
ATOM     44  C   UNL     1       1.893  40.774  11.880  1.00  0.00     0.073 C 
BRANCH  44  45
ATOM     45  N   UNL     1       1.164  39.690  12.558  1.00  0.00    -0.346 N 
ATOM     46  C   UNL     1       1.767  38.731  13.255  1.00  0.00     0.242 CG0
ATOM     47  O   UNL     1       2.986  38.646  13.392  1.00  0.00    -0.273 OA
ATOM     48  G   UNL     1       0.841  37.678  13.867  1.00  0.00     0.000 G0
ENDBRANCH  44  45
BRANCH  44  49
ATOM     49  C   UNL     1       2.032  42.001  12.784  1.00  0.00     0.064 C 
ATOM     50  O   UNL     1       2.563  43.025  12.355  1.00  0.00    -0.548 OA
ATOM     51  O   UNL     1       1.615  41.977  13.940  1.00  0.00    -0.548 OA
ENDBRANCH  44  49
ENDBRANCH  43  44
ENDBRANCH  39  43
ENDBRANCH  32  36
ENDBRANCH  22  29
ENDBRANCH  20  22
ENDBRANCH   1  20
TORSDOF 11
ENDMDL
MODEL 2
REMARK VINA RESULT:   -10.379      4.708      8.074
REMARK INTER + INTRA:         -13.213
REMARK INTER:                 -12.657
REMARK INTRA:                  -0.556
REMARK UNBOUND:                 8.088
REMARK SMILES CC(=O)N(C)[C@H](CO)C(=O)N[C@H](C)C(=O)NCC(=O)N(C)[C@@H]1C(=O)N[C@@H](C)C(=O)N[C@H](C(=O)[O-])Cc2ccc(O)c(c2)-c2cc1ccc2O
REMARK SMILES IDX 18 1 19 2 17 3 16 4 14 5 15 6 12 7 13 8 11 9 9 10 10 11 6 12
REMARK SMILES IDX 4 13 5 14 2 15 3 16 1 17 7 18 8 19 20 20 21 21 22 22 23 23
REMARK SMILES IDX 24 24 25 25 26 26 27 27 45 29 44 30 46 31 43 32 47 33 48 34
REMARK SMILES IDX 49 35 41 36 42 37 39 38 36 39 38 40 40 41 37 42 35 43 31 44
REMARK SMILES IDX 30 45 28 46 29 47 32 49 33 50 34 51
REMARK H PARENT
REMARK Flexibility Score: 80.00
ROOT
ATOM      1  C   UNL     1       1.626  40.561  12.564  1.00  0.00     0.242 C 
ATOM      2  O   UNL     1       1.854  41.175  13.604  1.00  0.00    -0.273 OA
ENDROOT
BRANCH   1   3
ATOM      3  C   UNL     1       2.503  39.376  12.152  1.00  0.00     0.097 C 
BRANCH   3   4
ATOM      4  N   UNL     1       1.727  38.144  11.942  1.00  0.00    -0.345 N 
ATOM      5  C   UNL     1       1.512  37.274  12.922  1.00  0.00     0.242 C 
ATOM      6  O   UNL     1       1.962  37.404  14.059  1.00  0.00    -0.273 OA
BRANCH   5   7
ATOM      7  C   UNL     1       0.650  36.062  12.568  1.00  0.00     0.105 C 
ATOM      8  C   UNL     1       1.516  34.971  11.934  1.00  0.00    -0.036 C 
BRANCH   7   9
ATOM      9  N   UNL     1       0.066  35.590  13.834  1.00  0.00    -0.343 N 
ATOM     10  C   UNL     1      -1.244  35.434  14.011  1.00  0.00     0.245 C 
ATOM     11  O   UNL     1      -2.087  35.612  13.133  1.00  0.00    -0.273 OA
BRANCH  10  12
ATOM     12  C   UNL     1      -1.648  34.989  15.420  1.00  0.00     0.133 C 
BRANCH  12  13
ATOM     13  N   UNL     1      -1.995  36.113  16.305  1.00  0.00    -0.332 N 
ATOM     14  C   UNL     1      -1.005  36.989  16.956  1.00  0.00     0.010 C 
BRANCH  13  15
ATOM     15  C   UNL     1      -3.280  36.347  16.568  1.00  0.00     0.219 C 
ATOM     16  O   UNL     1      -3.693  37.439  16.962  1.00  0.00    -0.275 OA
ATOM     17  C   UNL     1      -4.265  35.194  16.351  1.00  0.00     0.015 C 
ENDBRANCH  13  15
ENDBRANCH  12  13
BRANCH  12  18
ATOM     18  C   UNL     1      -0.503  34.182  16.037  1.00  0.00     0.073 C 
ATOM     19  O   UNL     1      -1.031  33.138  16.858  1.00  0.00    -0.394 OA
ENDBRANCH  12  18
ENDBRANCH  10  12
ENDBRANCH   7   9
ENDBRANCH   5   7
ENDBRANCH   3   4
ENDBRANCH   1   3
BRANCH   1  20
ATOM     20  N   UNL     1       0.597  40.840  11.766  1.00  0.00    -0.328 N 
ATOM     21  C   UNL     1      -0.612  40.014  11.911  1.00  0.00     0.010 C 
BRANCH  20  22
ATOM     22  C   UNL     1       0.704  41.948  10.804  1.00  0.00     0.136 C 
BRANCH  22  23
ATOM     23  C   UNL     1       0.165  43.263  11.376  1.00  0.00     0.248 C 
ATOM     24  O   UNL     1      -0.117  43.385  12.566  1.00  0.00    -0.272 OA
ATOM     25  N   UNL     1      -0.002  44.204  10.451  1.00  0.00    -0.342 N 
BRANCH  25  26
ATOM     26  C   UNL     1      -0.546  45.547  10.703  1.00  0.00     0.105 CG0
ATOM     27  C   UNL     1       0.528  46.450  11.314  1.00  0.00    -0.036 C 
ATOM     28  G   UNL     1      -0.981  46.094   9.341  1.00  0.00     0.000 G0
ENDBRANCH  25  26
ENDBRANCH  22  23
BRANCH  22  29
ATOM     29  C   UNL     1      -0.086  41.598   9.539  1.00  0.00    -0.015 A 
ATOM     30  C   UNL     1      -1.325  42.193   9.315  1.00  0.00    -0.045 A 
ATOM     31  C   UNL     1       0.408  40.682   8.616  1.00  0.00    -0.053 A 
ATOM     32  C   UNL     1      -2.080  41.896   8.185  1.00  0.00     0.028 A 
ATOM     33  C   UNL     1      -0.346  40.370   7.487  1.00  0.00    -0.019 A 
ATOM     34  C   UNL     1      -1.584  40.968   7.269  1.00  0.00     0.123 A 
ATOM     35  O   UNL     1      -2.298  40.642   6.158  1.00  0.00    -0.507 OA
BRANCH  32  36
ATOM     36  C   UNL     1      -3.275  42.582   7.995  1.00  0.00     0.027 A 
ATOM     37  C   UNL     1      -3.230  43.971   7.906  1.00  0.00    -0.047 A 
ATOM     38  C   UNL     1      -4.514  41.943   7.992  1.00  0.00     0.123 A 
ATOM     39  C   UNL     1      -4.392  44.729   7.823  1.00  0.00    -0.045 A 
ATOM     40  C   UNL     1      -5.683  42.695   7.906  1.00  0.00    -0.019 A 
ATOM     41  O   UNL     1      -4.593  40.590   8.087  1.00  0.00    -0.507 OA
ATOM     42  C   UNL     1      -5.627  44.082   7.822  1.00  0.00    -0.055 A 
BRANCH  39  43
ATOM     43  C   UNL     1      -4.328  46.258   7.754  1.00  0.00    -0.002 C 
BRANCH  43  44
ATOM     44  C   UNL     1      -2.915  46.822   7.935  1.00  0.00     0.073 C 
BRANCH  44  45
ATOM     45  N   UNL     1      -2.311  46.303   9.173  1.00  0.00    -0.346 N 
ATOM     46  C   UNL     1      -1.002  46.127   9.327  1.00  0.00     0.242 CG0
ATOM     47  O   UNL     1      -0.170  46.366   8.454  1.00  0.00    -0.273 OA
ATOM     48  G   UNL     1      -0.567  45.554  10.677  1.00  0.00     0.000 G0
ENDBRANCH  44  45
BRANCH  44  49
ATOM     49  C   UNL     1      -2.973  48.351   7.943  1.00  0.00     0.064 C 
ATOM     50  O   UNL     1      -3.077  48.970   6.885  1.00  0.00    -0.548 OA
ATOM     51  O   UNL     1      -2.919  48.973   9.003  1.00  0.00    -0.548 OA
ENDBRANCH  44  49
ENDBRANCH  43  44
ENDBRANCH  39  43
ENDBRANCH  32  36
ENDBRANCH  22  29
ENDBRANCH  20  22
ENDBRANCH   1  20
TORSDOF 11
ENDMDL
MODEL 3
REMARK VINA RESULT:   -10.359      2.582     10.455
REMARK INTER + INTRA:         -13.172
REMARK INTER:                 -11.966
REMARK INTRA:                  -1.205
REMARK UNBOUND:                 8.088
REMARK SMILES CC(=O)N(C)[C@H](CO)C(=O)N[C@H](C)C(=O)NCC(=O)N(C)[C@@H]1C(=O)N[C@@H](C)C(=O)N[C@H](C(=O)[O-])Cc2ccc(O)c(c2)-c2cc1ccc2O
REMARK SMILES IDX 18 1 19 2 17 3 16 4 14 5 15 6 12 7 13 8 11 9 9 10 10 11 6 12
REMARK SMILES IDX 4 13 5 14 2 15 3 16 1 17 7 18 8 19 20 20 21 21 22 22 23 23
REMARK SMILES IDX 24 24 25 25 26 26 27 27 45 29 44 30 46 31 43 32 47 33 48 34
REMARK SMILES IDX 49 35 41 36 42 37 39 38 36 39 38 40 40 41 37 42 35 43 31 44
REMARK SMILES IDX 30 45 28 46 29 47 32 49 33 50 34 51
REMARK H PARENT
REMARK Flexibility Score: 80.00
ROOT
ATOM      1  C   UNL     1       0.991  33.756  11.107  1.00  0.00     0.242 C 
ATOM      2  O   UNL     1       1.842  33.502  10.256  1.00  0.00    -0.273 OA
ENDROOT
BRANCH   1   3
ATOM      3  C   UNL     1       0.078  34.976  10.953  1.00  0.00     0.097 C 
BRANCH   3   4
ATOM      4  N   UNL     1       0.574  36.148  11.690  1.00  0.00    -0.345 N 
ATOM      5  C   UNL     1      -0.185  36.801  12.564  1.00  0.00     0.242 C 
ATOM      6  O   UNL     1      -1.355  36.506  12.804  1.00  0.00    -0.273 OA
BRANCH   5   7
ATOM      7  C   UNL     1       0.478  37.973  13.288  1.00  0.00     0.105 C 
ATOM      8  C   UNL     1       1.537  37.454  14.264  1.00  0.00    -0.036 C 
BRANCH   7   9
ATOM      9  N   UNL     1       1.098  38.803  12.243  1.00  0.00    -0.343 N 
ATOM     10  C   UNL     1       0.477  39.836  11.677  1.00  0.00     0.245 C 
ATOM     11  O   UNL     1      -0.642  40.232  12.000  1.00  0.00    -0.273 OA
BRANCH  10  12
ATOM     12  C   UNL     1       1.276  40.531  10.570  1.00  0.00     0.133 C 
BRANCH  12  13
ATOM     13  N   UNL     1       1.091  41.992  10.553  1.00  0.00    -0.332 N 
ATOM     14  C   UNL     1       0.238  42.705   9.587  1.00  0.00     0.010 C 
BRANCH  13  15
ATOM     15  C   UNL     1       1.755  42.731  11.440  1.00  0.00     0.219 C 
ATOM     16  O   UNL     1       2.747  42.320  12.043  1.00  0.00    -0.275 OA
ATOM     17  C   UNL     1       1.245  44.154  11.693  1.00  0.00     0.015 C 
ENDBRANCH  13  15
ENDBRANCH  12  13
BRANCH  12  18
ATOM     18  C   UNL     1       0.869  39.944   9.216  1.00  0.00     0.073 C 
ATOM     19  O   UNL     1       1.242  38.565   9.152  1.00  0.00    -0.394 OA
ENDBRANCH  12  18
ENDBRANCH  10  12
ENDBRANCH   7   9
ENDBRANCH   5   7
ENDBRANCH   3   4
ENDBRANCH   1   3
BRANCH   1  20
ATOM     20  N   UNL     1       0.773  32.985  12.170  1.00  0.00    -0.328 N 
ATOM     21  C   UNL     1      -0.259  31.943  12.045  1.00  0.00     0.010 C 
BRANCH  20  22
ATOM     22  C   UNL     1       1.565  33.191  13.392  1.00  0.00     0.136 C 
BRANCH  22  23
ATOM     23  C   UNL     1       2.694  32.165  13.528  1.00  0.00     0.248 C 
ATOM     24  O   UNL     1       2.955  31.365  12.632  1.00  0.00    -0.272 OA
ATOM     25  N   UNL     1       3.300  32.211  14.712  1.00  0.00    -0.342 N 
BRANCH  25  26
ATOM     26  C   UNL     1       4.386  31.315  15.138  1.00  0.00     0.105 CG0
ATOM     27  C   UNL     1       5.737  31.851  14.658  1.00  0.00    -0.036 C 
ATOM     28  G   UNL     1       4.343  31.290  16.668  1.00  0.00     0.000 G0
ENDBRANCH  25  26
ENDBRANCH  22  23
BRANCH  22  29
ATOM     29  C   UNL     1       0.648  33.082  14.614  1.00  0.00    -0.015 A 
ATOM     30  C   UNL     1       0.680  31.933  15.398  1.00  0.00    -0.045 A 
ATOM     31  C   UNL     1      -0.231  34.109  14.945  1.00  0.00    -0.053 A 
ATOM     32  C   UNL     1      -0.143  31.788  16.511  1.00  0.00     0.028 A 
ATOM     33  C   UNL     1      -1.067  33.969  16.050  1.00  0.00    -0.019 A 
ATOM     34  C   UNL     1      -1.030  32.817  16.830  1.00  0.00     0.123 A 
ATOM     35  O   UNL     1      -1.859  32.707  17.903  1.00  0.00    -0.507 OA
BRANCH  32  36
ATOM     36  C   UNL     1      -0.004  30.641  17.286  1.00  0.00     0.027 A 
ATOM     37  C   UNL     1       1.259  30.330  17.781  1.00  0.00    -0.047 A 
ATOM     38  C   UNL     1      -1.054  29.747  17.497  1.00  0.00     0.123 A 
ATOM     39  C   UNL     1       1.495  29.148  18.473  1.00  0.00    -0.045 A 
ATOM     40  C   UNL     1      -0.827  28.562  18.192  1.00  0.00    -0.019 A 
ATOM     41  O   UNL     1      -2.296  30.016  17.018  1.00  0.00    -0.507 OA
ATOM     42  C   UNL     1       0.441  28.259  18.679  1.00  0.00    -0.055 A 
BRANCH  39  43
ATOM     43  C   UNL     1       2.897  28.806  18.988  1.00  0.00    -0.002 C 
BRANCH  43  44
ATOM     44  C   UNL     1       3.939  29.893  18.699  1.00  0.00     0.073 C 
BRANCH  44  45
ATOM     45  N   UNL     1       4.080  30.095  17.248  1.00  0.00    -0.346 N 
ATOM     46  C   UNL     1       4.319  31.282  16.698  1.00  0.00     0.242 CG0
ATOM     47  O   UNL     1       4.433  32.325  17.339  1.00  0.00    -0.273 OA
ATOM     48  G   UNL     1       4.409  31.295  15.171  1.00  0.00     0.000 G0
ENDBRANCH  44  45
BRANCH  44  49
ATOM     49  C   UNL     1       5.272  29.503  19.340  1.00  0.00     0.064 C 
ATOM     50  O   UNL     1       6.122  28.906  18.680  1.00  0.00    -0.548 OA
ATOM     51  O   UNL     1       5.508  29.782  20.514  1.00  0.00    -0.548 OA
ENDBRANCH  44  49
ENDBRANCH  43  44
ENDBRANCH  39  43
ENDBRANCH  32  36
ENDBRANCH  22  29
ENDBRANCH  20  22
ENDBRANCH   1  20
TORSDOF 11
ENDMDL
MODEL 4
REMARK VINA RESULT:   -10.342      2.660      4.871
REMARK INTER + INTRA:         -13.135
REMARK INTER:                 -12.152
REMARK INTRA:                  -0.983
REMARK UNBOUND:                 8.088
REMARK SMILES CC(=O)N(C)[C@H](CO)C(=O)N[C@H](C)C(=O)NCC(=O)N(C)[C@@H]1C(=O)N[C@@H](C)C(=O)N[C@H](C(=O)[O-])Cc2ccc(O)c(c2)-c2cc1ccc2O
REMARK SMILES IDX 18 1 19 2 17 3 16 4 14 5 15 6 12 7 13 8 11 9 9 10 10 11 6 12
REMARK SMILES IDX 4 13 5 14 2 15 3 16 1 17 7 18 8 19 20 20 21 21 22 22 23 23
REMARK SMILES IDX 24 24 25 25 26 26 27 27 45 29 44 30 46 31 43 32 47 33 48 34
REMARK SMILES IDX 49 35 41 36 42 37 39 38 36 39 38 40 40 41 37 42 35 43 31 44
REMARK SMILES IDX 30 45 28 46 29 47 32 49 33 50 34 51
REMARK H PARENT
REMARK Flexibility Score: 80.00
ROOT
ATOM      1  C   UNL     1       5.356  32.459   9.117  1.00  0.00     0.242 C 
ATOM      2  O   UNL     1       5.376  31.784   8.089  1.00  0.00    -0.273 OA
ENDROOT
BRANCH   1   3
ATOM      3  C   UNL     1       5.889  31.888  10.434  1.00  0.00     0.097 C 
BRANCH   3   4
ATOM      4  N   UNL     1       4.864  31.848  11.488  1.00  0.00    -0.345 N 
ATOM      5  C   UNL     1       4.693  30.781  12.261  1.00  0.00     0.242 C 
ATOM      6  O   UNL     1       5.344  29.743  12.144  1.00  0.00    -0.273 OA
BRANCH   5   7
ATOM      7  C   UNL     1       3.620  30.899  13.344  1.00  0.00     0.105 C 
ATOM      8  C   UNL     1       2.483  29.913  13.062  1.00  0.00    -0.036 C 
BRANCH   7   9
ATOM      9  N   UNL     1       4.283  30.577  14.617  1.00  0.00    -0.343 N 
ATOM     10  C   UNL     1       4.605  31.502  15.518  1.00  0.00     0.245 C 
ATOM     11  O   UNL     1       4.338  32.698  15.408  1.00  0.00    -0.273 OA
BRANCH  10  12
ATOM     12  C   UNL     1       5.341  30.964  16.749  1.00  0.00     0.133 C 
BRANCH  12  13
ATOM     13  N   UNL     1       4.697  29.778  17.337  1.00  0.00    -0.332 N 
ATOM     14  C   UNL     1       3.438  29.815  18.102  1.00  0.00     0.010 C 
BRANCH  13  15
ATOM     15  C   UNL     1       5.293  28.594  17.204  1.00  0.00     0.219 C 
ATOM     16  O   UNL     1       6.476  28.406  17.491  1.00  0.00    -0.275 OA
ATOM     17  C   UNL     1       4.443  27.432  16.681  1.00  0.00     0.015 C 
ENDBRANCH  13  15
ENDBRANCH  12  13
BRANCH  12  18
ATOM     18  C   UNL     1       5.435  32.073  17.799  1.00  0.00     0.073 C 
ATOM     19  O   UNL     1       6.489  31.781  18.722  1.00  0.00    -0.394 OA
ENDBRANCH  12  18
ENDBRANCH  10  12
ENDBRANCH   7   9
ENDBRANCH   5   7
ENDBRANCH   3   4
ENDBRANCH   1   3
BRANCH   1  20
ATOM     20  N   UNL     1       4.927  33.720   9.151  1.00  0.00    -0.328 N 
ATOM     21  C   UNL     1       5.896  34.750   9.558  1.00  0.00     0.010 C 
BRANCH  20  22
ATOM     22  C   UNL     1       3.539  34.026   8.773  1.00  0.00     0.136 C 
BRANCH  22  23
ATOM     23  C   UNL     1       3.461  35.063   7.649  1.00  0.00     0.248 C 
ATOM     24  O   UNL     1       4.412  35.280   6.901  1.00  0.00    -0.272 OA
ATOM     25  N   UNL     1       2.300  35.711   7.617  1.00  0.00    -0.342 N 
BRANCH  25  26
ATOM     26  C   UNL     1       1.962  36.790   6.677  1.00  0.00     0.105 CG0
ATOM     27  C   UNL     1       1.599  36.208   5.308  1.00  0.00    -0.036 C 
ATOM     28  G   UNL     1       0.755  37.516   7.276  1.00  0.00     0.000 G0
ENDBRANCH  25  26
ENDBRANCH  22  23
BRANCH  22  29
ATOM     29  C   UNL     1       2.788  34.563   9.995  1.00  0.00    -0.015 A 
ATOM     30  C   UNL     1       2.681  35.938  10.186  1.00  0.00    -0.045 A 
ATOM     31  C   UNL     1       2.225  33.698  10.928  1.00  0.00    -0.053 A 
ATOM     32  C   UNL     1       2.017  36.469  11.288  1.00  0.00     0.028 A 
ATOM     33  C   UNL     1       1.569  34.221  12.040  1.00  0.00    -0.019 A 
ATOM     34  C   UNL     1       1.464  35.596  12.226  1.00  0.00     0.123 A 
ATOM     35  O   UNL     1       0.818  36.078  13.322  1.00  0.00    -0.507 OA
BRANCH  32  36
ATOM     36  C   UNL     1       1.890  37.852  11.374  1.00  0.00     0.027 A 
ATOM     37  C   UNL     1       1.242  38.519  10.339  1.00  0.00    -0.047 A 
ATOM     38  C   UNL     1       2.473  38.596  12.400  1.00  0.00     0.123 A 
ATOM     39  C   UNL     1       1.170  39.908  10.305  1.00  0.00    -0.045 A 
ATOM     40  C   UNL     1       2.404  39.986  12.375  1.00  0.00    -0.019 A 
ATOM     41  O   UNL     1       3.122  37.975  13.419  1.00  0.00    -0.507 OA
ATOM     42  C   UNL     1       1.756  40.643  11.333  1.00  0.00    -0.055 A 
BRANCH  39  43
ATOM     43  C   UNL     1       0.477  40.629   9.145  1.00  0.00    -0.002 C 
BRANCH  43  44
ATOM     44  C   UNL     1      -0.151  39.679   8.119  1.00  0.00     0.073 C 
BRANCH  44  45
ATOM     45  N   UNL     1       0.884  38.835   7.501  1.00  0.00    -0.346 N 
ATOM     46  C   UNL     1       0.732  37.530   7.295  1.00  0.00     0.242 CG0
ATOM     47  O   UNL     1      -0.275  36.898   7.608  1.00  0.00    -0.273 OA
ATOM     48  G   UNL     1       1.930  36.818   6.663  1.00  0.00     0.000 G0
ENDBRANCH  44  45
BRANCH  44  49
ATOM     49  C   UNL     1      -0.906  40.494   7.066  1.00  0.00     0.064 C 
ATOM     50  O   UNL     1      -1.667  39.931   6.280  1.00  0.00    -0.548 OA
ATOM     51  O   UNL     1      -0.761  41.713   6.997  1.00  0.00    -0.548 OA
ENDBRANCH  44  49
ENDBRANCH  43  44
ENDBRANCH  39  43
ENDBRANCH  32  36
ENDBRANCH  22  29
ENDBRANCH  20  22
ENDBRANCH   1  20
TORSDOF 11
ENDMDL
MODEL 5
REMARK VINA RESULT:   -10.332      9.681     17.476
REMARK INTER + INTRA:         -13.115
REMARK INTER:                 -12.345
REMARK INTRA:                  -0.770
REMARK UNBOUND:                 8.088
REMARK SMILES CC(=O)N(C)[C@H](CO)C(=O)N[C@H](C)C(=O)NCC(=O)N(C)[C@@H]1C(=O)N[C@@H](C)C(=O)N[C@H](C(=O)[O-])Cc2ccc(O)c(c2)-c2cc1ccc2O
REMARK SMILES IDX 18 1 19 2 17 3 16 4 14 5 15 6 12 7 13 8 11 9 9 10 10 11 6 12
REMARK SMILES IDX 4 13 5 14 2 15 3 16 1 17 7 18 8 19 20 20 21 21 22 22 23 23
REMARK SMILES IDX 24 24 25 25 26 26 27 27 45 29 44 30 46 31 43 32 47 33 48 34
REMARK SMILES IDX 49 35 41 36 42 37 39 38 36 39 38 40 40 41 37 42 35 43 31 44
REMARK SMILES IDX 30 45 28 46 29 47 32 49 33 50 34 51
REMARK H PARENT
REMARK Flexibility Score: 80.00
ROOT
ATOM      1  C   UNL     1      -3.119  49.055   7.465  1.00  0.00     0.242 C 
ATOM      2  O   UNL     1      -2.357  49.950   7.104  1.00  0.00    -0.273 OA
ENDROOT
BRANCH   1   3
ATOM      3  C   UNL     1      -4.527  49.387   7.967  1.00  0.00     0.097 C 
BRANCH   3   4
ATOM      4  N   UNL     1      -5.088  50.586   7.324  1.00  0.00    -0.345 N 
ATOM      5  C   UNL     1      -5.073  51.774   7.918  1.00  0.00     0.242 C 
ATOM      6  O   UNL     1      -4.626  51.965   9.048  1.00  0.00    -0.273 OA
BRANCH   5   7
ATOM      7  C   UNL     1      -5.651  52.937   7.111  1.00  0.00     0.105 C 
ATOM      8  C   UNL     1      -6.232  53.991   8.057  1.00  0.00    -0.036 C 
BRANCH   7   9
ATOM      9  N   UNL     1      -4.532  53.496   6.337  1.00  0.00    -0.343 N 
ATOM     10  C   UNL     1      -4.523  53.535   5.006  1.00  0.00     0.245 C 
ATOM     11  O   UNL     1      -5.457  53.164   4.296  1.00  0.00    -0.273 OA
BRANCH  10  12
ATOM     12  C   UNL     1      -3.239  54.103   4.394  1.00  0.00     0.133 C 
BRANCH  12  13
ATOM     13  N   UNL     1      -3.036  55.531   4.693  1.00  0.00    -0.332 N 
ATOM     14  C   UNL     1      -3.991  56.594   4.334  1.00  0.00     0.010 C 
BRANCH  13  15
ATOM     15  C   UNL     1      -1.911  55.904   5.299  1.00  0.00     0.219 C 
ATOM     16  O   UNL     1      -1.565  55.464   6.396  1.00  0.00    -0.275 OA
ATOM     17  C   UNL     1      -1.021  56.917   4.571  1.00  0.00     0.015 C 
ENDBRANCH  13  15
ENDBRANCH  12  13
BRANCH  12  18
ATOM     18  C   UNL     1      -3.273  53.895   2.878  1.00  0.00     0.073 C 
ATOM     19  O   UNL     1      -2.642  52.656   2.543  1.00  0.00    -0.394 OA
ENDBRANCH  12  18
ENDBRANCH  10  12
ENDBRANCH   7   9
ENDBRANCH   5   7
ENDBRANCH   3   4
ENDBRANCH   1   3
BRANCH   1  20
ATOM     20  N   UNL     1      -2.805  47.762   7.401  1.00  0.00    -0.328 N 
ATOM     21  C   UNL     1      -2.702  47.160   6.062  1.00  0.00     0.010 C 
BRANCH  20  22
ATOM     22  C   UNL     1      -2.564  47.011   8.643  1.00  0.00     0.136 C 
BRANCH  22  23
ATOM     23  C   UNL     1      -1.087  47.022   9.046  1.00  0.00     0.248 C 
ATOM     24  O   UNL     1      -0.240  47.627   8.392  1.00  0.00    -0.272 OA
ATOM     25  N   UNL     1      -0.834  46.280  10.122  1.00  0.00    -0.342 N 
BRANCH  25  26
ATOM     26  C   UNL     1       0.498  46.069  10.707  1.00  0.00     0.105 CG0
ATOM     27  C   UNL     1       0.892  47.265  11.577  1.00  0.00    -0.036 C 
ATOM     28  G   UNL     1       0.392  44.806  11.565  1.00  0.00     0.000 G0
ENDBRANCH  25  26
ENDBRANCH  22  23
BRANCH  22  29
ATOM     29  C   UNL     1      -3.014  45.559   8.451  1.00  0.00    -0.015 A 
ATOM     30  C   UNL     1      -2.066  44.541   8.445  1.00  0.00    -0.045 A 
ATOM     31  C   UNL     1      -4.357  45.244   8.268  1.00  0.00    -0.053 A 
ATOM     32  C   UNL     1      -2.430  43.210   8.264  1.00  0.00     0.028 A 
ATOM     33  C   UNL     1      -4.730  43.916   8.074  1.00  0.00    -0.019 A 
ATOM     34  C   UNL     1      -3.777  42.901   8.069  1.00  0.00     0.123 A 
ATOM     35  O   UNL     1      -4.171  41.613   7.877  1.00  0.00    -0.507 OA
BRANCH  32  36
ATOM     36  C   UNL     1      -1.435  42.241   8.340  1.00  0.00     0.027 A 
ATOM     37  C   UNL     1      -0.652  42.190   9.490  1.00  0.00    -0.047 A 
ATOM     38  C   UNL     1      -1.131  41.393   7.275  1.00  0.00     0.123 A 
ATOM     39  C   UNL     1       0.427  41.319   9.593  1.00  0.00    -0.045 A 
ATOM     40  C   UNL     1      -0.054  40.516   7.371  1.00  0.00    -0.019 A 
ATOM     41  O   UNL     1      -1.870  41.425   6.135  1.00  0.00    -0.507 OA
ATOM     42  C   UNL     1       0.725  40.477   8.523  1.00  0.00    -0.055 A 
BRANCH  39  43
ATOM     43  C   UNL     1       1.297  41.295  10.853  1.00  0.00    -0.002 C 
BRANCH  43  44
ATOM     44  C   UNL     1       1.000  42.440  11.827  1.00  0.00     0.073 C 
BRANCH  44  45
ATOM     45  N   UNL     1       1.019  43.731  11.120  1.00  0.00    -0.346 N 
ATOM     46  C   UNL     1       0.380  44.811  11.560  1.00  0.00     0.242 CG0
ATOM     47  O   UNL     1      -0.298  44.838  12.586  1.00  0.00    -0.273 OA
ATOM     48  G   UNL     1       0.497  46.054  10.674  1.00  0.00     0.000 G0
ENDBRANCH  44  45
BRANCH  44  49
ATOM     49  C   UNL     1       2.019  42.416  12.969  1.00  0.00     0.064 C 
ATOM     50  O   UNL     1       3.206  42.643  12.740  1.00  0.00    -0.548 OA
ATOM     51  O   UNL     1       1.662  42.172  14.120  1.00  0.00    -0.548 OA
ENDBRANCH  44  49
ENDBRANCH  43  44
ENDBRANCH  39  43
ENDBRANCH  32  36
ENDBRANCH  22  29
ENDBRANCH  20  22
ENDBRANCH   1  20
TORSDOF 11
ENDMDL
MODEL 6
REMARK VINA RESULT:   -10.321      3.720     10.511
REMARK INTER + INTRA:         -13.092
REMARK INTER:                 -12.151
REMARK INTRA:                  -0.941
REMARK UNBOUND:                 8.088
REMARK SMILES CC(=O)N(C)[C@H](CO)C(=O)N[C@H](C)C(=O)NCC(=O)N(C)[C@@H]1C(=O)N[C@@H](C)C(=O)N[C@H](C(=O)[O-])Cc2ccc(O)c(c2)-c2cc1ccc2O
REMARK SMILES IDX 18 1 19 2 17 3 16 4 14 5 15 6 12 7 13 8 11 9 9 10 10 11 6 12
REMARK SMILES IDX 4 13 5 14 2 15 3 16 1 17 7 18 8 19 20 20 21 21 22 22 23 23
REMARK SMILES IDX 24 24 25 25 26 26 27 27 45 29 44 30 46 31 43 32 47 33 48 34
REMARK SMILES IDX 49 35 41 36 42 37 39 38 36 39 38 40 40 41 37 42 35 43 31 44
REMARK SMILES IDX 30 45 28 46 29 47 32 49 33 50 34 51
REMARK H PARENT
REMARK Flexibility Score: 80.00
ROOT
ATOM      1  C   UNL     1      -3.609  32.018  15.863  1.00  0.00     0.242 C 
ATOM      2  O   UNL     1      -4.267  31.135  15.316  1.00  0.00    -0.273 OA
ENDROOT
BRANCH   1   3
ATOM      3  C   UNL     1      -4.081  33.475  15.828  1.00  0.00     0.097 C 
BRANCH   3   4
ATOM      4  N   UNL     1      -3.724  34.154  14.573  1.00  0.00    -0.345 N 
ATOM      5  C   UNL     1      -3.248  35.394  14.556  1.00  0.00     0.242 C 
ATOM      6  O   UNL     1      -3.097  36.079  15.567  1.00  0.00    -0.273 OA
BRANCH   5   7
ATOM      7  C   UNL     1      -2.879  35.955  13.183  1.00  0.00     0.105 C 
ATOM      8  C   UNL     1      -4.058  36.742  12.605  1.00  0.00    -0.036 C 
BRANCH   7   9
ATOM      9  N   UNL     1      -1.722  36.836  13.396  1.00  0.00    -0.343 N 
ATOM     10  C   UNL     1      -0.466  36.441  13.198  1.00  0.00     0.245 C 
ATOM     11  O   UNL     1      -0.149  35.332  12.770  1.00  0.00    -0.273 OA
BRANCH  10  12
ATOM     12  C   UNL     1       0.594  37.494  13.534  1.00  0.00     0.133 C 
BRANCH  12  13
ATOM     13  N   UNL     1       1.200  38.109  12.341  1.00  0.00    -0.332 N 
ATOM     14  C   UNL     1       2.171  37.431  11.465  1.00  0.00     0.010 C 
BRANCH  13  15
ATOM     15  C   UNL     1       0.883  39.366  12.039  1.00  0.00     0.219 C 
ATOM     16  O   UNL     1      -0.271  39.796  12.090  1.00  0.00    -0.275 OA
ATOM     17  C   UNL     1       2.024  40.301  11.624  1.00  0.00     0.015 C 
ENDBRANCH  13  15
ENDBRANCH  12  13
BRANCH  12  18
ATOM     18  C   UNL     1       1.686  36.848  14.391  1.00  0.00     0.073 C 
ATOM     19  O   UNL     1       2.735  37.789  14.633  1.00  0.00    -0.394 OA
ENDBRANCH  12  18
ENDBRANCH  10  12
ENDBRANCH   7   9
ENDBRANCH   5   7
ENDBRANCH   3   4
ENDBRANCH   1   3
BRANCH   1  20
ATOM     20  N   UNL     1      -2.495  31.775  16.551  1.00  0.00    -0.328 N 
ATOM     21  C   UNL     1      -2.037  32.818  17.482  1.00  0.00     0.010 C 
BRANCH  20  22
ATOM     22  C   UNL     1      -1.792  30.496  16.367  1.00  0.00     0.136 C 
BRANCH  22  23
ATOM     23  C   UNL     1      -1.413  29.848  17.701  1.00  0.00     0.248 C 
ATOM     24  O   UNL     1      -1.944  30.183  18.758  1.00  0.00    -0.272 OA
ATOM     25  N   UNL     1      -0.440  28.948  17.587  1.00  0.00    -0.342 N 
BRANCH  25  26
ATOM     26  C   UNL     1       0.156  28.203  18.705  1.00  0.00     0.105 CG0
ATOM     27  C   UNL     1      -0.790  27.091  19.168  1.00  0.00    -0.036 C 
ATOM     28  G   UNL     1       1.456  27.599  18.172  1.00  0.00     0.000 G0
ENDBRANCH  25  26
ENDBRANCH  22  23
BRANCH  22  29
ATOM     29  C   UNL     1      -0.516  30.733  15.552  1.00  0.00    -0.015 A 
ATOM     30  C   UNL     1       0.709  30.828  16.206  1.00  0.00    -0.045 A 
ATOM     31  C   UNL     1      -0.564  30.870  14.168  1.00  0.00    -0.053 A 
ATOM     32  C   UNL     1       1.891  31.052  15.506  1.00  0.00     0.028 A 
ATOM     33  C   UNL     1       0.612  31.107  13.460  1.00  0.00    -0.019 A 
ATOM     34  C   UNL     1       1.834  31.200  14.119  1.00  0.00     0.123 A 
ATOM     35  O   UNL     1       2.966  31.433  13.401  1.00  0.00    -0.507 OA
BRANCH  32  36
ATOM     36  C   UNL     1       3.084  31.065  16.220  1.00  0.00     0.027 A 
ATOM     37  C   UNL     1       3.462  29.906  16.892  1.00  0.00    -0.047 A 
ATOM     38  C   UNL     1       3.857  32.217  16.368  1.00  0.00     0.123 A 
ATOM     39  C   UNL     1       4.586  29.877  17.711  1.00  0.00    -0.045 A 
ATOM     40  C   UNL     1       4.986  32.195  17.183  1.00  0.00    -0.019 A 
ATOM     41  O   UNL     1       3.510  33.367  15.733  1.00  0.00    -0.507 OA
ATOM     42  C   UNL     1       5.352  31.032  17.854  1.00  0.00    -0.055 A 
BRANCH  39  43
ATOM     43  C   UNL     1       4.973  28.602  18.466  1.00  0.00    -0.002 C 
BRANCH  43  44
ATOM     44  C   UNL     1       3.930  27.483  18.358  1.00  0.00     0.073 C 
BRANCH  44  45
ATOM     45  N   UNL     1       2.603  27.980  18.756  1.00  0.00    -0.346 N 
ATOM     46  C   UNL     1       1.472  27.568  18.191  1.00  0.00     0.242 CG0
ATOM     47  O   UNL     1       1.421  26.747  17.276  1.00  0.00    -0.273 OA
ATOM     48  G   UNL     1       0.193  28.218  18.723  1.00  0.00     0.000 G0
ENDBRANCH  44  45
BRANCH  44  49
ATOM     49  C   UNL     1       4.364  26.298  19.223  1.00  0.00     0.064 C 
ATOM     50  O   UNL     1       4.168  26.316  20.437  1.00  0.00    -0.548 OA
ATOM     51  O   UNL     1       4.908  25.319  18.714  1.00  0.00    -0.548 OA
ENDBRANCH  44  49
ENDBRANCH  43  44
ENDBRANCH  39  43
ENDBRANCH  32  36
ENDBRANCH  22  29
ENDBRANCH  20  22
ENDBRANCH   1  20
TORSDOF 11
ENDMDL
MODEL 7
REMARK VINA RESULT:   -10.247      9.685     17.203
REMARK INTER + INTRA:         -12.941
REMARK INTER:                 -12.625
REMARK INTRA:                  -0.316
REMARK UNBOUND:                 8.088
REMARK SMILES CC(=O)N(C)[C@H](CO)C(=O)N[C@H](C)C(=O)NCC(=O)N(C)[C@@H]1C(=O)N[C@@H](C)C(=O)N[C@H](C(=O)[O-])Cc2ccc(O)c(c2)-c2cc1ccc2O
REMARK SMILES IDX 18 1 19 2 17 3 16 4 14 5 15 6 12 7 13 8 11 9 9 10 10 11 6 12
REMARK SMILES IDX 4 13 5 14 2 15 3 16 1 17 7 18 8 19 20 20 21 21 22 22 23 23
REMARK SMILES IDX 24 24 25 25 26 26 27 27 45 29 44 30 46 31 43 32 47 33 48 34
REMARK SMILES IDX 49 35 41 36 42 37 39 38 36 39 38 40 40 41 37 42 35 43 31 44
REMARK SMILES IDX 30 45 28 46 29 47 32 49 33 50 34 51
REMARK H PARENT
REMARK Flexibility Score: 80.00
ROOT
ATOM      1  C   UNL     1      -3.486  48.880   7.533  1.00  0.00     0.242 C 
ATOM      2  O   UNL     1      -4.595  48.948   8.058  1.00  0.00    -0.273 OA
ENDROOT
BRANCH   1   3
ATOM      3  C   UNL     1      -2.819  50.133   6.959  1.00  0.00     0.097 C 
BRANCH   3   4
ATOM      4  N   UNL     1      -3.789  51.187   6.625  1.00  0.00    -0.345 N 
ATOM      5  C   UNL     1      -4.303  51.309   5.407  1.00  0.00     0.242 C 
ATOM      6  O   UNL     1      -3.994  50.584   4.461  1.00  0.00    -0.273 OA
BRANCH   5   7
ATOM      7  C   UNL     1      -5.333  52.422   5.218  1.00  0.00     0.105 C 
ATOM      8  C   UNL     1      -6.293  52.061   4.082  1.00  0.00    -0.036 C 
BRANCH   7   9
ATOM      9  N   UNL     1      -6.057  52.532   6.494  1.00  0.00    -0.343 N 
ATOM     10  C   UNL     1      -5.990  53.611   7.272  1.00  0.00     0.245 C 
ATOM     11  O   UNL     1      -5.370  54.634   6.985  1.00  0.00    -0.273 OA
BRANCH  10  12
ATOM     12  C   UNL     1      -6.772  53.499   8.584  1.00  0.00     0.133 C 
BRANCH  12  13
ATOM     13  N   UNL     1      -8.162  53.972   8.473  1.00  0.00    -0.332 N 
ATOM     14  C   UNL     1      -9.259  53.183   7.886  1.00  0.00     0.010 C 
BRANCH  13  15
ATOM     15  C   UNL     1      -8.456  55.200   8.897  1.00  0.00     0.219 C 
ATOM     16  O   UNL     1      -8.834  55.438  10.045  1.00  0.00    -0.275 OA
ATOM     17  C   UNL     1      -8.296  56.349   7.896  1.00  0.00     0.015 C 
ENDBRANCH  13  15
ENDBRANCH  12  13
BRANCH  12  18
ATOM     18  C   UNL     1      -6.043  54.295   9.670  1.00  0.00     0.073 C 
ATOM     19  O   UNL     1      -4.919  53.550  10.147  1.00  0.00    -0.394 OA
ENDBRANCH  12  18
ENDBRANCH  10  12
ENDBRANCH   7   9
ENDBRANCH   5   7
ENDBRANCH   3   4
ENDBRANCH   1   3
BRANCH   1  20
ATOM     20  N   UNL     1      -2.779  47.753   7.469  1.00  0.00    -0.328 N 
ATOM     21  C   UNL     1      -2.258  47.358   6.150  1.00  0.00     0.010 C 
BRANCH  20  22
ATOM     22  C   UNL     1      -2.540  46.974   8.694  1.00  0.00     0.136 C 
BRANCH  22  23
ATOM     23  C   UNL     1      -1.062  46.968   9.095  1.00  0.00     0.248 C 
ATOM     24  O   UNL     1      -0.206  47.542   8.424  1.00  0.00    -0.272 OA
ATOM     25  N   UNL     1      -0.821  46.248  10.188  1.00  0.00    -0.342 N 
BRANCH  25  26
ATOM     26  C   UNL     1       0.508  46.027  10.776  1.00  0.00     0.105 CG0
ATOM     27  C   UNL     1       0.918  47.230  11.630  1.00  0.00    -0.036 C 
ATOM     28  G   UNL     1       0.386  44.778  11.650  1.00  0.00     0.000 G0
ENDBRANCH  25  26
ENDBRANCH  22  23
BRANCH  22  29
ATOM     29  C   UNL     1      -3.000  45.530   8.474  1.00  0.00    -0.015 A 
ATOM     30  C   UNL     1      -2.060  44.503   8.468  1.00  0.00    -0.045 A 
ATOM     31  C   UNL     1      -4.341  45.229   8.263  1.00  0.00    -0.053 A 
ATOM     32  C   UNL     1      -2.432  43.178   8.262  1.00  0.00     0.028 A 
ATOM     33  C   UNL     1      -4.722  43.907   8.043  1.00  0.00    -0.019 A 
ATOM     34  C   UNL     1      -3.778  42.884   8.039  1.00  0.00     0.123 A 
ATOM     35  O   UNL     1      -4.180  41.603   7.821  1.00  0.00    -0.507 OA
BRANCH  32  36
ATOM     36  C   UNL     1      -1.447  42.199   8.341  1.00  0.00     0.027 A 
ATOM     37  C   UNL     1      -0.664  42.145   9.490  1.00  0.00    -0.047 A 
ATOM     38  C   UNL     1      -1.152  41.345   7.278  1.00  0.00     0.123 A 
ATOM     39  C   UNL     1       0.407  41.263   9.596  1.00  0.00    -0.045 A 
ATOM     40  C   UNL     1      -0.084  40.457   7.377  1.00  0.00    -0.019 A 
ATOM     41  O   UNL     1      -1.892  41.380   6.139  1.00  0.00    -0.507 OA
ATOM     42  C   UNL     1       0.696  40.414   8.529  1.00  0.00    -0.055 A 
BRANCH  39  43
ATOM     43  C   UNL     1       1.277  41.235  10.856  1.00  0.00    -0.002 C 
BRANCH  43  44
ATOM     44  C   UNL     1       0.966  42.365  11.843  1.00  0.00     0.073 C 
BRANCH  44  45
ATOM     45  N   UNL     1       0.989  43.666  11.156  1.00  0.00    -0.346 N 
ATOM     46  C   UNL     1       0.389  44.752  11.634  1.00  0.00     0.242 CG0
ATOM     47  O   UNL     1      -0.252  44.777  12.683  1.00  0.00    -0.273 OA
ATOM     48  G   UNL     1       0.504  46.006  10.764  1.00  0.00     0.000 G0
ENDBRANCH  44  45
BRANCH  44  49
ATOM     49  C   UNL     1       1.973  42.325  12.995  1.00  0.00     0.064 C 
ATOM     50  O   UNL     1       1.622  41.932  14.107  1.00  0.00    -0.548 OA
ATOM     51  O   UNL     1       3.137  42.683  12.822  1.00  0.00    -0.548 OA
ENDBRANCH  44  49
ENDBRANCH  43  44
ENDBRANCH  39  43
ENDBRANCH  32  36
ENDBRANCH  22  29
ENDBRANCH  20  22
ENDBRANCH   1  20
TORSDOF 11
ENDMDL
MODEL 8
REMARK VINA RESULT:   -10.155      3.038      5.010
REMARK INTER + INTRA:         -12.752
REMARK INTER:                 -11.508
REMARK INTRA:                  -1.244
REMARK UNBOUND:                 8.088
REMARK SMILES CC(=O)N(C)[C@H](CO)C(=O)N[C@H](C)C(=O)NCC(=O)N(C)[C@@H]1C(=O)N[C@@H](C)C(=O)N[C@H](C(=O)[O-])Cc2ccc(O)c(c2)-c2cc1ccc2O
REMARK SMILES IDX 18 1 19 2 17 3 16 4 14 5 15 6 12 7 13 8 11 9 9 10 10 11 6 12
REMARK SMILES IDX 4 13 5 14 2 15 3 16 1 17 7 18 8 19 20 20 21 21 22 22 23 23
REMARK SMILES IDX 24 24 25 25 26 26 27 27 45 29 44 30 46 31 43 32 47 33 48 34
REMARK SMILES IDX 49 35 41 36 42 37 39 38 36 39 38 40 40 41 37 42 35 43 31 44
REMARK SMILES IDX 30 45 28 46 29 47 32 49 33 50 34 51
REMARK H PARENT
REMARK Flexibility Score: 80.00
ROOT
ATOM      1  C   UNL     1       0.648  32.138  11.996  1.00  0.00     0.242 C 
ATOM      2  O   UNL     1       1.685  31.498  11.830  1.00  0.00    -0.273 OA
ENDROOT
BRANCH   1   3
ATOM      3  C   UNL     1      -0.447  31.617  12.931  1.00  0.00     0.097 C 
BRANCH   3   4
ATOM      4  N   UNL     1      -0.410  32.257  14.255  1.00  0.00    -0.345 N 
ATOM      5  C   UNL     1      -1.278  31.945  15.211  1.00  0.00     0.242 C 
ATOM      6  O   UNL     1      -2.191  31.132  15.062  1.00  0.00    -0.273 OA
BRANCH   5   7
ATOM      7  C   UNL     1      -1.091  32.658  16.550  1.00  0.00     0.105 C 
ATOM      8  C   UNL     1       0.398  32.727  16.902  1.00  0.00    -0.036 C 
BRANCH   7   9
ATOM      9  N   UNL     1      -1.646  34.009  16.377  1.00  0.00    -0.343 N 
ATOM     10  C   UNL     1      -2.505  34.552  17.237  1.00  0.00     0.245 C 
ATOM     11  O   UNL     1      -2.877  34.012  18.278  1.00  0.00    -0.273 OA
BRANCH  10  12
ATOM     12  C   UNL     1      -3.007  35.944  16.843  1.00  0.00     0.133 C 
BRANCH  12  13
ATOM     13  N   UNL     1      -3.854  35.935  15.638  1.00  0.00    -0.332 N 
ATOM     14  C   UNL     1      -3.339  36.075  14.265  1.00  0.00     0.010 C 
BRANCH  13  15
ATOM     15  C   UNL     1      -5.173  35.825  15.784  1.00  0.00     0.219 C 
ATOM     16  O   UNL     1      -5.904  35.350  14.914  1.00  0.00    -0.275 OA
ATOM     17  C   UNL     1      -5.778  36.308  17.106  1.00  0.00     0.015 C 
ENDBRANCH  13  15
ENDBRANCH  12  13
BRANCH  12  18
ATOM     18  C   UNL     1      -1.804  36.865  16.621  1.00  0.00     0.073 C 
ATOM     19  O   UNL     1      -1.030  36.950  17.820  1.00  0.00    -0.394 OA
ENDBRANCH  12  18
ENDBRANCH  10  12
ENDBRANCH   7   9
ENDBRANCH   5   7
ENDBRANCH   3   4
ENDBRANCH   1   3
BRANCH   1  20
ATOM     20  N   UNL     1       0.427  33.323  11.429  1.00  0.00    -0.328 N 
ATOM     21  C   UNL     1      -0.833  33.489  10.686  1.00  0.00     0.010 C 
BRANCH  20  22
ATOM     22  C   UNL     1       1.420  34.397  11.579  1.00  0.00     0.136 C 
BRANCH  22  23
ATOM     23  C   UNL     1       0.995  35.435  12.622  1.00  0.00     0.248 C 
ATOM     24  O   UNL     1       0.144  35.188  13.473  1.00  0.00    -0.272 OA
ATOM     25  N   UNL     1       1.601  36.609  12.465  1.00  0.00    -0.342 N 
BRANCH  25  26
ATOM     26  C   UNL     1       1.354  37.802  13.289  1.00  0.00     0.105 CG0
ATOM     27  C   UNL     1       1.944  37.611  14.689  1.00  0.00    -0.036 C 
ATOM     28  G   UNL     1       2.051  38.964  12.579  1.00  0.00     0.000 G0
ENDBRANCH  25  26
ENDBRANCH  22  23
BRANCH  22  29
ATOM     29  C   UNL     1       1.614  35.099  10.232  1.00  0.00    -0.015 A 
ATOM     30  C   UNL     1       0.977  36.312   9.991  1.00  0.00    -0.045 A 
ATOM     31  C   UNL     1       2.406  34.535   9.237  1.00  0.00    -0.053 A 
ATOM     32  C   UNL     1       1.117  36.979   8.778  1.00  0.00     0.028 A 
ATOM     33  C   UNL     1       2.543  35.189   8.014  1.00  0.00    -0.019 A 
ATOM     34  C   UNL     1       1.903  36.402   7.780  1.00  0.00     0.123 A 
ATOM     35  O   UNL     1       2.055  37.018   6.576  1.00  0.00    -0.507 OA
BRANCH  32  36
ATOM     36  C   UNL     1       0.507  38.221   8.637  1.00  0.00     0.027 A 
ATOM     37  C   UNL     1       0.914  39.254   9.476  1.00  0.00    -0.047 A 
ATOM     38  C   UNL     1      -0.559  38.438   7.762  1.00  0.00     0.123 A 
ATOM     39  C   UNL     1       0.277  40.490   9.464  1.00  0.00    -0.045 A 
ATOM     40  C   UNL     1      -1.200  39.674   7.743  1.00  0.00    -0.019 A 
ATOM     41  O   UNL     1      -0.987  37.447   6.938  1.00  0.00    -0.507 OA
ATOM     42  C   UNL     1      -0.788  40.698   8.589  1.00  0.00    -0.055 A 
BRANCH  39  43
ATOM     43  C   UNL     1       0.718  41.609  10.413  1.00  0.00    -0.002 C 
BRANCH  43  44
ATOM     44  C   UNL     1       1.735  41.155  11.466  1.00  0.00     0.073 C 
BRANCH  44  45
ATOM     45  N   UNL     1       1.245  39.959  12.170  1.00  0.00    -0.346 N 
ATOM     46  C   UNL     1       2.045  38.989  12.602  1.00  0.00     0.242 CG0
ATOM     47  O   UNL     1       3.266  38.985  12.447  1.00  0.00    -0.273 OA
ATOM     48  G   UNL     1       1.347  37.814  13.291  1.00  0.00     0.000 G0
ENDBRANCH  44  45
BRANCH  44  49
ATOM     49  C   UNL     1       2.006  42.303  12.441  1.00  0.00     0.064 C 
ATOM     50  O   UNL     1       1.071  42.850  13.024  1.00  0.00    -0.548 OA
ATOM     51  O   UNL     1       3.156  42.687  12.651  1.00  0.00    -0.548 OA
ENDBRANCH  44  49
ENDBRANCH  43  44
ENDBRANCH  39  43
ENDBRANCH  32  36
ENDBRANCH  22  29
ENDBRANCH  20  22
ENDBRANCH   1  20
TORSDOF 11
ENDMDL
MODEL 9
REMARK VINA RESULT:   -10.149      2.918     11.031
REMARK INTER + INTRA:         -12.740
REMARK INTER:                 -12.250
REMARK INTRA:                  -0.489
REMARK UNBOUND:                 8.088
REMARK SMILES CC(=O)N(C)[C@H](CO)C(=O)N[C@H](C)C(=O)NCC(=O)N(C)[C@@H]1C(=O)N[C@@H](C)C(=O)N[C@H](C(=O)[O-])Cc2ccc(O)c(c2)-c2cc1ccc2O
REMARK SMILES IDX 18 1 19 2 17 3 16 4 14 5 15 6 12 7 13 8 11 9 9 10 10 11 6 12
REMARK SMILES IDX 4 13 5 14 2 15 3 16 1 17 7 18 8 19 20 20 21 21 22 22 23 23
REMARK SMILES IDX 24 24 25 25 26 26 27 27 45 29 44 30 46 31 43 32 47 33 48 34
REMARK SMILES IDX 49 35 41 36 42 37 39 38 36 39 38 40 40 41 37 42 35 43 31 44
REMARK SMILES IDX 30 45 28 46 29 47 32 49 33 50 34 51
REMARK H PARENT
REMARK Flexibility Score: 80.00
ROOT
ATOM      1  C   UNL     1       0.796  35.393  12.065  1.00  0.00     0.242 C 
ATOM      2  O   UNL     1       1.452  35.427  11.026  1.00  0.00    -0.273 OA
ENDROOT
BRANCH   1   3
ATOM      3  C   UNL     1       0.072  36.645  12.569  1.00  0.00     0.097 C 
BRANCH   3   4
ATOM      4  N   UNL     1       0.218  37.788  11.655  1.00  0.00    -0.345 N 
ATOM      5  C   UNL     1      -0.707  38.085  10.749  1.00  0.00     0.242 C 
ATOM      6  O   UNL     1      -1.731  37.424  10.578  1.00  0.00    -0.273 OA
BRANCH   5   7
ATOM      7  C   UNL     1      -0.441  39.327   9.898  1.00  0.00     0.105 C 
ATOM      8  C   UNL     1      -1.554  39.498   8.860  1.00  0.00    -0.036 C 
BRANCH   7   9
ATOM      9  N   UNL     1      -0.421  40.466  10.828  1.00  0.00    -0.343 N 
ATOM     10  C   UNL     1       0.446  41.471  10.722  1.00  0.00     0.245 C 
ATOM     11  O   UNL     1       1.273  41.578   9.817  1.00  0.00    -0.273 OA
BRANCH  10  12
ATOM     12  C   UNL     1       0.337  42.527  11.826  1.00  0.00     0.133 C 
BRANCH  12  13
ATOM     13  N   UNL     1      -0.097  43.843  11.328  1.00  0.00    -0.332 N 
ATOM     14  C   UNL     1      -0.602  44.086   9.966  1.00  0.00     0.010 C 
BRANCH  13  15
ATOM     15  C   UNL     1      -0.003  44.896  12.139  1.00  0.00     0.219 C 
ATOM     16  O   UNL     1      -0.406  44.880  13.303  1.00  0.00    -0.275 OA
ATOM     17  C   UNL     1       0.648  46.163  11.577  1.00  0.00     0.015 C 
ENDBRANCH  13  15
ENDBRANCH  12  13
BRANCH  12  18
ATOM     18  C   UNL     1       1.693  42.661  12.525  1.00  0.00     0.073 C 
ATOM     19  O   UNL     1       1.631  42.066  13.823  1.00  0.00    -0.394 OA
ENDBRANCH  12  18
ENDBRANCH  10  12
ENDBRANCH   7   9
ENDBRANCH   5   7
ENDBRANCH   3   4
ENDBRANCH   1   3
BRANCH   1  20
ATOM     20  N   UNL     1       0.629  34.285  12.785  1.00  0.00    -0.328 N 
ATOM     21  C   UNL     1      -0.315  33.282  12.266  1.00  0.00     0.010 C 
BRANCH  20  22
ATOM     22  C   UNL     1       1.389  34.106  14.032  1.00  0.00     0.136 C 
BRANCH  22  23
ATOM     23  C   UNL     1       2.431  32.990  13.918  1.00  0.00     0.248 C 
ATOM     24  O   UNL     1       2.687  32.449  12.844  1.00  0.00    -0.272 OA
ATOM     25  N   UNL     1       2.967  32.656  15.089  1.00  0.00    -0.342 N 
BRANCH  25  26
ATOM     26  C   UNL     1       3.958  31.588  15.288  1.00  0.00     0.105 CG0
ATOM     27  C   UNL     1       5.352  32.074  14.882  1.00  0.00    -0.036 C 
ATOM     28  G   UNL     1       3.932  31.255  16.781  1.00  0.00     0.000 G0
ENDBRANCH  25  26
ENDBRANCH  22  23
BRANCH  22  29
ATOM     29  C   UNL     1       0.421  33.766  15.170  1.00  0.00    -0.015 A 
ATOM     30  C   UNL     1       0.377  32.468  15.669  1.00  0.00    -0.045 A 
ATOM     31  C   UNL     1      -0.427  34.732  15.702  1.00  0.00    -0.053 A 
ATOM     32  C   UNL     1      -0.494  32.113  16.695  1.00  0.00     0.028 A 
ATOM     33  C   UNL     1      -1.311  34.383  16.721  1.00  0.00    -0.019 A 
ATOM     34  C   UNL     1      -1.350  33.083  17.216  1.00  0.00     0.123 A 
ATOM     35  O   UNL     1      -2.224  32.771  18.212  1.00  0.00    -0.507 OA
BRANCH  32  36
ATOM     36  C   UNL     1      -0.430  30.814  17.189  1.00  0.00     0.027 A 
ATOM     37  C   UNL     1       0.776  30.370  17.723  1.00  0.00    -0.047 A 
ATOM     38  C   UNL     1      -1.493  29.917  17.078  1.00  0.00     0.123 A 
ATOM     39  C   UNL     1       0.944  29.054  18.139  1.00  0.00    -0.045 A 
ATOM     40  C   UNL     1      -1.334  28.598  17.495  1.00  0.00    -0.019 A 
ATOM     41  O   UNL     1      -2.680  30.316  16.552  1.00  0.00    -0.507 OA
ATOM     42  C   UNL     1      -0.122  28.164  18.023  1.00  0.00    -0.055 A 
BRANCH  39  43
ATOM     43  C   UNL     1       2.286  28.574  18.698  1.00  0.00    -0.002 C 
BRANCH  43  44
ATOM     44  C   UNL     1       3.416  29.599  18.549  1.00  0.00     0.073 C 
BRANCH  44  45
ATOM     45  N   UNL     1       3.521  30.046  17.151  1.00  0.00    -0.346 N 
ATOM     46  C   UNL     1       3.937  31.260  16.804  1.00  0.00     0.242 CG0
ATOM     47  O   UNL     1       4.261  32.131  17.610  1.00  0.00    -0.273 OA
ATOM     48  G   UNL     1       3.956  31.547  15.301  1.00  0.00     0.000 G0
ENDBRANCH  44  45
BRANCH  44  49
ATOM     49  C   UNL     1       4.729  28.984  19.038  1.00  0.00     0.064 C 
ATOM     50  O   UNL     1       5.545  29.675  19.646  1.00  0.00    -0.548 OA
ATOM     51  O   UNL     1       4.980  27.798  18.830  1.00  0.00    -0.548 OA
ENDBRANCH  44  49
ENDBRANCH  43  44
ENDBRANCH  39  43
ENDBRANCH  32  36
ENDBRANCH  22  29
ENDBRANCH  20  22
ENDBRANCH   1  20
TORSDOF 11
ENDMDL
MODEL 10
REMARK VINA RESULT:   -10.142      8.826     14.767
REMARK INTER + INTRA:         -12.727
REMARK INTER:                 -11.034
REMARK INTRA:                  -1.693
REMARK UNBOUND:                 8.088
REMARK SMILES CC(=O)N(C)[C@H](CO)C(=O)N[C@H](C)C(=O)NCC(=O)N(C)[C@@H]1C(=O)N[C@@H](C)C(=O)N[C@H](C(=O)[O-])Cc2ccc(O)c(c2)-c2cc1ccc2O
REMARK SMILES IDX 18 1 19 2 17 3 16 4 14 5 15 6 12 7 13 8 11 9 9 10 10 11 6 12
REMARK SMILES IDX 4 13 5 14 2 15 3 16 1 17 7 18 8 19 20 20 21 21 22 22 23 23
REMARK SMILES IDX 24 24 25 25 26 26 27 27 45 29 44 30 46 31 43 32 47 33 48 34
REMARK SMILES IDX 49 35 41 36 42 37 39 38 36 39 38 40 40 41 37 42 35 43 31 44
REMARK SMILES IDX 30 45 28 46 29 47 32 49 33 50 34 51
REMARK H PARENT
REMARK Flexibility Score: 80.00
ROOT
ATOM      1  C   UNL     1      -3.331  48.867   7.231  1.00  0.00     0.242 C 
ATOM      2  O   UNL     1      -3.064  49.726   8.070  1.00  0.00    -0.273 OA
ENDROOT
BRANCH   1   3
ATOM      3  C   UNL     1      -4.229  49.200   6.036  1.00  0.00     0.097 C 
BRANCH   3   4
ATOM      4  N   UNL     1      -5.642  48.875   6.282  1.00  0.00    -0.345 N 
ATOM      5  C   UNL     1      -6.271  47.921   5.605  1.00  0.00     0.242 C 
ATOM      6  O   UNL     1      -5.746  47.262   4.709  1.00  0.00    -0.273 OA
BRANCH   5   7
ATOM      7  C   UNL     1      -7.726  47.663   6.000  1.00  0.00     0.105 C 
ATOM      8  C   UNL     1      -8.602  47.587   4.747  1.00  0.00    -0.036 C 
BRANCH   7   9
ATOM      9  N   UNL     1      -7.735  46.379   6.718  1.00  0.00    -0.343 N 
ATOM     10  C   UNL     1      -8.590  46.108   7.702  1.00  0.00     0.245 C 
ATOM     11  O   UNL     1      -9.482  46.870   8.073  1.00  0.00    -0.273 OA
BRANCH  10  12
ATOM     12  C   UNL     1      -8.394  44.737   8.357  1.00  0.00     0.133 C 
BRANCH  12  13
ATOM     13  N   UNL     1      -9.447  43.771   8.005  1.00  0.00    -0.332 N 
ATOM     14  C   UNL     1     -10.615  43.476   8.852  1.00  0.00     0.010 C 
BRANCH  13  15
ATOM     15  C   UNL     1      -9.335  43.090   6.865  1.00  0.00     0.219 C 
ATOM     16  O   UNL     1     -10.086  43.267   5.905  1.00  0.00    -0.275 OA
ATOM     17  C   UNL     1      -8.208  42.057   6.770  1.00  0.00     0.015 C 
ENDBRANCH  13  15
ENDBRANCH  12  13
BRANCH  12  18
ATOM     18  C   UNL     1      -8.342  44.912   9.877  1.00  0.00     0.073 C 
ATOM     19  O   UNL     1      -7.194  45.683  10.239  1.00  0.00    -0.394 OA
ENDBRANCH  12  18
ENDBRANCH  10  12
ENDBRANCH   7   9
ENDBRANCH   5   7
ENDBRANCH   3   4
ENDBRANCH   1   3
BRANCH   1  20
ATOM     20  N   UNL     1      -2.834  47.632   7.271  1.00  0.00    -0.328 N 
ATOM     21  C   UNL     1      -2.500  47.000   5.985  1.00  0.00     0.010 C 
BRANCH  20  22
ATOM     22  C   UNL     1      -2.630  46.973   8.570  1.00  0.00     0.136 C 
BRANCH  22  23
ATOM     23  C   UNL     1      -1.171  47.042   9.029  1.00  0.00     0.248 C 
ATOM     24  O   UNL     1      -0.328  47.695   8.416  1.00  0.00    -0.272 OA
ATOM     25  N   UNL     1      -0.925  46.294  10.102  1.00  0.00    -0.342 N 
BRANCH  25  26
ATOM     26  C   UNL     1       0.392  46.132  10.734  1.00  0.00     0.105 CG0
ATOM     27  C   UNL     1       0.715  47.346  11.608  1.00  0.00    -0.036 C 
ATOM     28  G   UNL     1       0.300  44.872  11.596  1.00  0.00     0.000 G0
ENDBRANCH  25  26
ENDBRANCH  22  23
BRANCH  22  29
ATOM     29  C   UNL     1      -3.046  45.502   8.462  1.00  0.00    -0.015 A 
ATOM     30  C   UNL     1      -2.070  44.510   8.462  1.00  0.00    -0.045 A 
ATOM     31  C   UNL     1      -4.385  45.143   8.347  1.00  0.00    -0.053 A 
ATOM     32  C   UNL     1      -2.403  43.163   8.356  1.00  0.00     0.028 A 
ATOM     33  C   UNL     1      -4.727  43.798   8.228  1.00  0.00    -0.019 A 
ATOM     34  C   UNL     1      -3.746  42.810   8.229  1.00  0.00     0.123 A 
ATOM     35  O   UNL     1      -4.111  41.505   8.111  1.00  0.00    -0.507 OA
BRANCH  32  36
ATOM     36  C   UNL     1      -1.378  42.226   8.435  1.00  0.00     0.027 A 
ATOM     37  C   UNL     1      -0.585  42.211   9.579  1.00  0.00    -0.047 A 
ATOM     38  C   UNL     1      -1.056  41.376   7.376  1.00  0.00     0.123 A 
ATOM     39  C   UNL     1       0.521  41.375   9.683  1.00  0.00    -0.045 A 
ATOM     40  C   UNL     1       0.048  40.533   7.473  1.00  0.00    -0.019 A 
ATOM     41  O   UNL     1      -1.804  41.373   6.242  1.00  0.00    -0.507 OA
ATOM     42  C   UNL     1       0.836  40.530   8.620  1.00  0.00    -0.055 A 
BRANCH  39  43
ATOM     43  C   UNL     1       1.400  41.390  10.937  1.00  0.00    -0.002 C 
BRANCH  43  44
ATOM     44  C   UNL     1       1.057  42.520  11.914  1.00  0.00     0.073 C 
BRANCH  44  45
ATOM     45  N   UNL     1       1.036  43.814  11.213  1.00  0.00    -0.346 N 
ATOM     46  C   UNL     1       0.309  44.851  11.620  1.00  0.00     0.242 CG0
ATOM     47  O   UNL     1      -0.424  44.830  12.608  1.00  0.00    -0.273 OA
ATOM     48  G   UNL     1       0.399  46.104  10.747  1.00  0.00     0.000 G0
ENDBRANCH  44  45
BRANCH  44  49
ATOM     49  C   UNL     1       2.068  42.525  13.062  1.00  0.00     0.064 C 
ATOM     50  O   UNL     1       3.269  42.651  12.826  1.00  0.00    -0.548 OA
ATOM     51  O   UNL     1       1.693  42.405  14.227  1.00  0.00    -0.548 OA
ENDBRANCH  44  49
ENDBRANCH  43  44
ENDBRANCH  39  43
ENDBRANCH  32  36
ENDBRANCH  22  29
ENDBRANCH  20  22
ENDBRANCH   1  20
TORSDOF 11
ENDMDL
MODEL 11
REMARK VINA RESULT:   -10.125      3.502     11.082
REMARK INTER + INTRA:         -12.691
REMARK INTER:                 -12.293
REMARK INTRA:                  -0.398
REMARK UNBOUND:                 8.088
REMARK SMILES CC(=O)N(C)[C@H](CO)C(=O)N[C@H](C)C(=O)NCC(=O)N(C)[C@@H]1C(=O)N[C@@H](C)C(=O)N[C@H](C(=O)[O-])Cc2ccc(O)c(c2)-c2cc1ccc2O
REMARK SMILES IDX 18 1 19 2 17 3 16 4 14 5 15 6 12 7 13 8 11 9 9 10 10 11 6 12
REMARK SMILES IDX 4 13 5 14 2 15 3 16 1 17 7 18 8 19 20 20 21 21 22 22 23 23
REMARK SMILES IDX 24 24 25 25 26 26 27 27 45 29 44 30 46 31 43 32 47 33 48 34
REMARK SMILES IDX 49 35 41 36 42 37 39 38 36 39 38 40 40 41 37 42 35 43 31 44
REMARK SMILES IDX 30 45 28 46 29 47 32 49 33 50 34 51
REMARK H PARENT
REMARK Flexibility Score: 80.00
ROOT
ATOM      1  C   UNL     1      -2.654  33.481  15.805  1.00  0.00     0.242 C 
ATOM      2  O   UNL     1      -3.757  33.082  16.170  1.00  0.00    -0.273 OA
ENDROOT
BRANCH   1   3
ATOM      3  C   UNL     1      -2.536  34.640  14.811  1.00  0.00     0.097 C 
BRANCH   3   4
ATOM      4  N   UNL     1      -1.221  35.299  14.866  1.00  0.00    -0.345 N 
ATOM      5  C   UNL     1      -0.999  36.472  14.284  1.00  0.00     0.242 C 
ATOM      6  O   UNL     1      -1.848  37.082  13.634  1.00  0.00    -0.273 OA
BRANCH   5   7
ATOM      7  C   UNL     1       0.403  37.057  14.462  1.00  0.00     0.105 C 
ATOM      8  C   UNL     1       1.420  35.928  14.648  1.00  0.00    -0.036 C 
BRANCH   7   9
ATOM      9  N   UNL     1       0.690  37.816  13.235  1.00  0.00    -0.343 N 
ATOM     10  C   UNL     1       1.432  38.921  13.226  1.00  0.00     0.245 C 
ATOM     11  O   UNL     1       1.993  39.386  14.218  1.00  0.00    -0.273 OA
BRANCH  10  12
ATOM     12  C   UNL     1       1.561  39.591  11.855  1.00  0.00     0.133 C 
BRANCH  12  13
ATOM     13  N   UNL     1       0.990  40.948  11.817  1.00  0.00    -0.332 N 
ATOM     14  C   UNL     1      -0.442  41.237  11.626  1.00  0.00     0.010 C 
BRANCH  13  15
ATOM     15  C   UNL     1       1.811  41.990  11.930  1.00  0.00     0.219 C 
ATOM     16  O   UNL     1       2.956  41.894  12.376  1.00  0.00    -0.275 OA
ATOM     17  C   UNL     1       1.287  43.354  11.469  1.00  0.00     0.015 C 
ENDBRANCH  13  15
ENDBRANCH  12  13
BRANCH  12  18
ATOM     18  C   UNL     1       0.875  38.714  10.804  1.00  0.00     0.073 C 
ATOM     19  O   UNL     1       1.858  37.999  10.051  1.00  0.00    -0.394 OA
ENDBRANCH  12  18
ENDBRANCH  10  12
ENDBRANCH   7   9
ENDBRANCH   5   7
ENDBRANCH   3   4
ENDBRANCH   1   3
BRANCH   1  20
ATOM     20  N   UNL     1      -1.509  32.982  16.269  1.00  0.00    -0.328 N 
ATOM     21  C   UNL     1      -0.705  33.848  17.146  1.00  0.00     0.010 C 
BRANCH  20  22
ATOM     22  C   UNL     1      -1.113  31.613  15.907  1.00  0.00     0.136 C 
BRANCH  22  23
ATOM     23  C   UNL     1      -1.333  30.626  17.057  1.00  0.00     0.248 C 
ATOM     24  O   UNL     1      -1.975  30.931  18.060  1.00  0.00    -0.272 OA
ATOM     25  N   UNL     1      -0.725  29.458  16.865  1.00  0.00    -0.342 N 
BRANCH  25  26
ATOM     26  C   UNL     1      -0.725  28.340  17.821  1.00  0.00     0.105 CG0
ATOM     27  C   UNL     1      -1.970  27.473  17.624  1.00  0.00    -0.036 C 
ATOM     28  G   UNL     1       0.536  27.525  17.525  1.00  0.00     0.000 G0
ENDBRANCH  25  26
ENDBRANCH  22  23
BRANCH  22  29
ATOM     29  C   UNL     1       0.369  31.600  15.521  1.00  0.00    -0.015 A 
ATOM     30  C   UNL     1       1.316  31.161  16.442  1.00  0.00    -0.045 A 
ATOM     31  C   UNL     1       0.787  32.035  14.267  1.00  0.00    -0.053 A 
ATOM     32  C   UNL     1       2.673  31.142  16.136  1.00  0.00     0.028 A 
ATOM     33  C   UNL     1       2.145  32.032  13.956  1.00  0.00    -0.019 A 
ATOM     34  C   UNL     1       3.087  31.591  14.881  1.00  0.00     0.123 A 
ATOM     35  O   UNL     1       4.406  31.600  14.550  1.00  0.00    -0.507 OA
BRANCH  32  36
ATOM     36  C   UNL     1       3.552  30.624  17.082  1.00  0.00     0.027 A 
ATOM     37  C   UNL     1       3.319  29.339  17.562  1.00  0.00    -0.047 A 
ATOM     38  C   UNL     1       4.588  31.377  17.634  1.00  0.00     0.123 A 
ATOM     39  C   UNL     1       4.092  28.796  18.583  1.00  0.00    -0.045 A 
ATOM     40  C   UNL     1       5.369  30.840  18.655  1.00  0.00    -0.019 A 
ATOM     41  O   UNL     1       4.835  32.638  17.194  1.00  0.00    -0.507 OA
ATOM     42  C   UNL     1       5.124  29.555  19.131  1.00  0.00    -0.055 A 
BRANCH  39  43
ATOM     43  C   UNL     1       3.806  27.391  19.121  1.00  0.00    -0.002 C 
BRANCH  43  44
ATOM     44  C   UNL     1       2.689  26.660  18.367  1.00  0.00     0.073 C 
BRANCH  44  45
ATOM     45  N   UNL     1       1.416  27.386  18.508  1.00  0.00    -0.346 N 
ATOM     46  C   UNL     1       0.544  27.525  17.514  1.00  0.00     0.242 CG0
ATOM     47  O   UNL     1       0.716  27.076  16.382  1.00  0.00    -0.273 OA
ATOM     48  G   UNL     1      -0.712  28.334  17.846  1.00  0.00     0.000 G0
ENDBRANCH  44  45
BRANCH  44  49
ATOM     49  C   UNL     1       2.574  25.227  18.891  1.00  0.00     0.064 C 
ATOM     50  O   UNL     1       3.427  24.392  18.595  1.00  0.00    -0.548 OA
ATOM     51  O   UNL     1       1.632  24.898  19.611  1.00  0.00    -0.548 OA
ENDBRANCH  44  49
ENDBRANCH  43  44
ENDBRANCH  39  43
ENDBRANCH  32  36
ENDBRANCH  22  29
ENDBRANCH  20  22
ENDBRANCH   1  20
TORSDOF 11
ENDMDL
MODEL 12
REMARK VINA RESULT:   -10.115      1.552      2.749
REMARK INTER + INTRA:         -12.671
REMARK INTER:                 -11.812
REMARK INTRA:                  -0.859
REMARK UNBOUND:                 8.088
REMARK SMILES CC(=O)N(C)[C@H](CO)C(=O)N[C@H](C)C(=O)NCC(=O)N(C)[C@@H]1C(=O)N[C@@H](C)C(=O)N[C@H](C(=O)[O-])Cc2ccc(O)c(c2)-c2cc1ccc2O
REMARK SMILES IDX 18 1 19 2 17 3 16 4 14 5 15 6 12 7 13 8 11 9 9 10 10 11 6 12
REMARK SMILES IDX 4 13 5 14 2 15 3 16 1 17 7 18 8 19 20 20 21 21 22 22 23 23
REMARK SMILES IDX 24 24 25 25 26 26 27 27 45 29 44 30 46 31 43 32 47 33 48 34
REMARK SMILES IDX 49 35 41 36 42 37 39 38 36 39 38 40 40 41 37 42 35 43 31 44
REMARK SMILES IDX 30 45 28 46 29 47 32 49 33 50 34 51
REMARK H PARENT
REMARK Flexibility Score: 80.00
ROOT
ATOM      1  C   UNL     1      -0.103  31.921  13.071  1.00  0.00     0.242 C 
ATOM      2  O   UNL     1       0.867  31.168  13.010  1.00  0.00    -0.273 OA
ENDROOT
BRANCH   1   3
ATOM      3  C   UNL     1      -1.259  31.623  14.030  1.00  0.00     0.097 C 
BRANCH   3   4
ATOM      4  N   UNL     1      -0.817  31.498  15.427  1.00  0.00    -0.345 N 
ATOM      5  C   UNL     1      -0.651  30.315  16.008  1.00  0.00     0.242 C 
ATOM      6  O   UNL     1      -0.880  29.243  15.449  1.00  0.00    -0.273 OA
BRANCH   5   7
ATOM      7  C   UNL     1      -0.144  30.339  17.450  1.00  0.00     0.105 C 
ATOM      8  C   UNL     1      -1.017  29.437  18.327  1.00  0.00    -0.036 C 
BRANCH   7   9
ATOM      9  N   UNL     1       1.239  29.840  17.408  1.00  0.00    -0.343 N 
ATOM     10  C   UNL     1       2.287  30.632  17.195  1.00  0.00     0.245 C 
ATOM     11  O   UNL     1       2.216  31.854  17.068  1.00  0.00    -0.273 OA
BRANCH  10  12
ATOM     12  C   UNL     1       3.634  29.905  17.131  1.00  0.00     0.133 C 
BRANCH  12  13
ATOM     13  N   UNL     1       4.786  30.800  17.326  1.00  0.00    -0.332 N 
ATOM     14  C   UNL     1       5.242  31.789  16.334  1.00  0.00     0.010 C 
BRANCH  13  15
ATOM     15  C   UNL     1       5.490  30.700  18.453  1.00  0.00     0.219 C 
ATOM     16  O   UNL     1       6.362  31.511  18.770  1.00  0.00    -0.275 OA
ATOM     17  C   UNL     1       5.171  29.524  19.381  1.00  0.00     0.015 C 
ENDBRANCH  13  15
ENDBRANCH  12  13
BRANCH  12  18
ATOM     18  C   UNL     1       3.755  29.196  15.779  1.00  0.00     0.073 C 
ATOM     19  O   UNL     1       3.304  27.844  15.897  1.00  0.00    -0.394 OA
ENDBRANCH  12  18
ENDBRANCH  10  12
ENDBRANCH   7   9
ENDBRANCH   5   7
ENDBRANCH   3   4
ENDBRANCH   1   3
BRANCH   1  20
ATOM     20  N   UNL     1      -0.197  33.046  12.365  1.00  0.00    -0.328 N 
ATOM     21  C   UNL     1      -1.292  33.138  11.386  1.00  0.00     0.010 C 
BRANCH  20  22
ATOM     22  C   UNL     1       0.767  34.133  12.598  1.00  0.00     0.136 C 
BRANCH  22  23
ATOM     23  C   UNL     1       0.121  35.340  13.284  1.00  0.00     0.248 C 
ATOM     24  O   UNL     1      -1.041  35.313  13.684  1.00  0.00    -0.272 OA
ATOM     25  N   UNL     1       0.926  36.398  13.343  1.00  0.00    -0.342 N 
BRANCH  25  26
ATOM     26  C   UNL     1       0.558  37.706  13.904  1.00  0.00     0.105 CG0
ATOM     27  C   UNL     1       0.772  37.715  15.420  1.00  0.00    -0.036 C 
ATOM     28  G   UNL     1       1.479  38.731  13.237  1.00  0.00     0.000 G0
ENDBRANCH  25  26
ENDBRANCH  22  23
BRANCH  22  29
ATOM     29  C   UNL     1       1.358  34.582  11.258  1.00  0.00    -0.015 A 
ATOM     30  C   UNL     1       0.949  35.788  10.697  1.00  0.00    -0.045 A 
ATOM     31  C   UNL     1       2.285  33.794  10.583  1.00  0.00    -0.053 A 
ATOM     32  C   UNL     1       1.452  36.229   9.476  1.00  0.00     0.028 A 
ATOM     33  C   UNL     1       2.785  34.222   9.355  1.00  0.00    -0.019 A 
ATOM     34  C   UNL     1       2.374  35.430   8.800  1.00  0.00     0.123 A 
ATOM     35  O   UNL     1       2.879  35.821   7.598  1.00  0.00    -0.507 OA
BRANCH  32  36
ATOM     36  C   UNL     1       1.051  37.478   9.014  1.00  0.00     0.027 A 
ATOM     37  C   UNL     1       1.247  38.581   9.840  1.00  0.00    -0.047 A 
ATOM     38  C   UNL     1       0.372  37.648   7.806  1.00  0.00     0.123 A 
ATOM     39  C   UNL     1       0.776  39.842   9.489  1.00  0.00    -0.045 A 
ATOM     40  C   UNL     1      -0.100  38.907   7.446  1.00  0.00    -0.019 A 
ATOM     41  O   UNL     1       0.155  36.589   6.983  1.00  0.00    -0.507 OA
ATOM     42  C   UNL     1       0.098  40.002   8.282  1.00  0.00    -0.055 A 
BRANCH  39  43
ATOM     43  C   UNL     1       0.976  41.041  10.421  1.00  0.00    -0.002 C 
BRANCH  43  44
ATOM     44  C   UNL     1       1.676  40.685  11.737  1.00  0.00     0.073 C 
BRANCH  44  45
ATOM     45  N   UNL     1       0.923  39.644  12.454  1.00  0.00    -0.346 N 
ATOM     46  C   UNL     1       1.497  38.745  13.247  1.00  0.00     0.242 CG0
ATOM     47  O   UNL     1       2.709  38.683  13.450  1.00  0.00    -0.273 OA
ATOM     48  G   UNL     1       0.550  37.727  13.886  1.00  0.00     0.000 G0
ENDBRANCH  44  45
BRANCH  44  49
ATOM     49  C   UNL     1       1.831  41.947  12.588  1.00  0.00     0.064 C 
ATOM     50  O   UNL     1       2.864  42.613  12.523  1.00  0.00    -0.548 OA
ATOM     51  O   UNL     1       0.928  42.308  13.341  1.00  0.00    -0.548 OA
ENDBRANCH  44  49
ENDBRANCH  43  44
ENDBRANCH  39  43
ENDBRANCH  32  36
ENDBRANCH  22  29
ENDBRANCH  20  22
ENDBRANCH   1  20
TORSDOF 11
ENDMDL
MODEL 13
REMARK VINA RESULT:   -10.073     10.297     18.131
REMARK INTER + INTRA:         -12.585
REMARK INTER:                 -11.985
REMARK INTRA:                  -0.600
REMARK UNBOUND:                 8.088
REMARK SMILES CC(=O)N(C)[C@H](CO)C(=O)N[C@H](C)C(=O)NCC(=O)N(C)[C@@H]1C(=O)N[C@@H](C)C(=O)N[C@H](C(=O)[O-])Cc2ccc(O)c(c2)-c2cc1ccc2O
REMARK SMILES IDX 18 1 19 2 17 3 16 4 14 5 15 6 12 7 13 8 11 9 9 10 10 11 6 12
REMARK SMILES IDX 4 13 5 14 2 15 3 16 1 17 7 18 8 19 20 20 21 21 22 22 23 23
REMARK SMILES IDX 24 24 25 25 26 26 27 27 45 29 44 30 46 31 43 32 47 33 48 34
REMARK SMILES IDX 49 35 41 36 42 37 39 38 36 39 38 40 40 41 37 42 35 43 31 44
REMARK SMILES IDX 30 45 28 46 29 47 32 49 33 50 34 51
REMARK H PARENT
REMARK Flexibility Score: 80.00
ROOT
ATOM      1  C   UNL     1      -2.955  49.351   7.611  1.00  0.00     0.242 C 
ATOM      2  O   UNL     1      -3.647  49.818   8.514  1.00  0.00    -0.273 OA
ENDROOT
BRANCH   1   3
ATOM      3  C   UNL     1      -2.375  50.261   6.525  1.00  0.00     0.097 C 
BRANCH   3   4
ATOM      4  N   UNL     1      -3.145  51.504   6.359  1.00  0.00    -0.345 N 
ATOM      5  C   UNL     1      -2.557  52.661   6.075  1.00  0.00     0.242 C 
ATOM      6  O   UNL     1      -1.340  52.797   5.961  1.00  0.00    -0.273 OA
BRANCH   5   7
ATOM      7  C   UNL     1      -3.488  53.860   5.888  1.00  0.00     0.105 C 
ATOM      8  C   UNL     1      -4.090  54.270   7.234  1.00  0.00    -0.036 C 
BRANCH   7   9
ATOM      9  N   UNL     1      -2.657  54.943   5.340  1.00  0.00    -0.343 N 
ATOM     10  C   UNL     1      -2.818  55.426   4.110  1.00  0.00     0.245 C 
ATOM     11  O   UNL     1      -3.701  55.061   3.334  1.00  0.00    -0.273 OA
BRANCH  10  12
ATOM     12  C   UNL     1      -1.812  56.511   3.714  1.00  0.00     0.133 C 
BRANCH  12  13
ATOM     13  N   UNL     1      -0.775  56.029   2.787  1.00  0.00    -0.332 N 
ATOM     14  C   UNL     1      -0.005  54.788   2.981  1.00  0.00     0.010 C 
BRANCH  13  15
ATOM     15  C   UNL     1      -0.481  56.765   1.717  1.00  0.00     0.219 C 
ATOM     16  O   UNL     1      -0.530  57.996   1.719  1.00  0.00    -0.275 OA
ATOM     17  C   UNL     1      -0.056  56.023   0.446  1.00  0.00     0.015 C 
ENDBRANCH  13  15
ENDBRANCH  12  13
BRANCH  12  18
ATOM     18  C   UNL     1      -1.154  57.068   4.979  1.00  0.00     0.073 C 
ATOM     19  O   UNL     1      -0.885  58.462   4.814  1.00  0.00    -0.394 OA
ENDBRANCH  12  18
ENDBRANCH  10  12
ENDBRANCH   7   9
ENDBRANCH   5   7
ENDBRANCH   3   4
ENDBRANCH   1   3
BRANCH   1  20
ATOM     20  N   UNL     1      -2.627  48.062   7.538  1.00  0.00    -0.328 N 
ATOM     21  C   UNL     1      -2.474  47.480   6.195  1.00  0.00     0.010 C 
BRANCH  20  22
ATOM     22  C   UNL     1      -2.419  47.295   8.776  1.00  0.00     0.136 C 
BRANCH  22  23
ATOM     23  C   UNL     1      -0.941  47.226   9.171  1.00  0.00     0.248 C 
ATOM     24  O   UNL     1      -0.071  47.817   8.534  1.00  0.00    -0.272 OA
ATOM     25  N   UNL     1      -0.717  46.436  10.218  1.00  0.00    -0.342 N 
BRANCH  25  26
ATOM     26  C   UNL     1       0.607  46.145  10.788  1.00  0.00     0.105 CG0
ATOM     27  C   UNL     1       1.075  47.309  11.665  1.00  0.00    -0.036 C 
ATOM     28  G   UNL     1       0.440  44.882  11.635  1.00  0.00     0.000 G0
ENDBRANCH  25  26
ENDBRANCH  22  23
BRANCH  22  29
ATOM     29  C   UNL     1      -2.946  45.869   8.583  1.00  0.00    -0.015 A 
ATOM     30  C   UNL     1      -2.050  44.806   8.533  1.00  0.00    -0.045 A 
ATOM     31  C   UNL     1      -4.308  45.623   8.440  1.00  0.00    -0.053 A 
ATOM     32  C   UNL     1      -2.485  43.497   8.349  1.00  0.00     0.028 A 
ATOM     33  C   UNL     1      -4.752  44.317   8.243  1.00  0.00    -0.019 A 
ATOM     34  C   UNL     1      -3.851  43.257   8.195  1.00  0.00     0.123 A 
ATOM     35  O   UNL     1      -4.314  41.993   8.000  1.00  0.00    -0.507 OA
BRANCH  32  36
ATOM     36  C   UNL     1      -1.538  42.479   8.382  1.00  0.00     0.027 A 
ATOM     37  C   UNL     1      -0.747  42.351   9.520  1.00  0.00    -0.047 A 
ATOM     38  C   UNL     1      -1.284  41.656   7.284  1.00  0.00     0.123 A 
ATOM     39  C   UNL     1       0.290  41.427   9.582  1.00  0.00    -0.045 A 
ATOM     40  C   UNL     1      -0.250  40.725   7.339  1.00  0.00    -0.019 A 
ATOM     41  O   UNL     1      -2.031  41.763   6.154  1.00  0.00    -0.507 OA
ATOM     42  C   UNL     1       0.537  40.608   8.481  1.00  0.00    -0.055 A 
BRANCH  39  43
ATOM     43  C   UNL     1       1.169  41.316  10.831  1.00  0.00    -0.002 C 
BRANCH  43  44
ATOM     44  C   UNL     1       0.951  42.452  11.837  1.00  0.00     0.073 C 
BRANCH  44  45
ATOM     45  N   UNL     1       1.030  43.757  11.161  1.00  0.00    -0.346 N 
ATOM     46  C   UNL     1       0.446  44.856  11.629  1.00  0.00     0.242 CG0
ATOM     47  O   UNL     1      -0.226  44.891  12.659  1.00  0.00    -0.273 OA
ATOM     48  G   UNL     1       0.621  46.112  10.773  1.00  0.00     0.000 G0
ENDBRANCH  44  45
BRANCH  44  49
ATOM     49  C   UNL     1       1.985  42.343  12.960  1.00  0.00     0.064 C 
ATOM     50  O   UNL     1       1.656  41.906  14.061  1.00  0.00    -0.548 OA
ATOM     51  O   UNL     1       3.151  42.688  12.772  1.00  0.00    -0.548 OA
ENDBRANCH  44  49
ENDBRANCH  43  44
ENDBRANCH  39  43
ENDBRANCH  32  36
ENDBRANCH  22  29
ENDBRANCH  20  22
ENDBRANCH   1  20
TORSDOF 11
ENDMDL
MODEL 14
REMARK VINA RESULT:   -10.071      9.077     16.793
REMARK INTER + INTRA:         -12.579
REMARK INTER:                 -12.383
REMARK INTRA:                  -0.196
REMARK UNBOUND:                 8.088
REMARK SMILES CC(=O)N(C)[C@H](CO)C(=O)N[C@H](C)C(=O)NCC(=O)N(C)[C@@H]1C(=O)N[C@@H](C)C(=O)N[C@H](C(=O)[O-])Cc2ccc(O)c(c2)-c2cc1ccc2O
REMARK SMILES IDX 18 1 19 2 17 3 16 4 14 5 15 6 12 7 13 8 11 9 9 10 10 11 6 12
REMARK SMILES IDX 4 13 5 14 2 15 3 16 1 17 7 18 8 19 20 20 21 21 22 22 23 23
REMARK SMILES IDX 24 24 25 25 26 26 27 27 45 29 44 30 46 31 43 32 47 33 48 34
REMARK SMILES IDX 49 35 41 36 42 37 39 38 36 39 38 40 40 41 37 42 35 43 31 44
REMARK SMILES IDX 30 45 28 46 29 47 32 49 33 50 34 51
REMARK H PARENT
REMARK Flexibility Score: 80.00
ROOT
ATOM      1  C   UNL     1      -2.938  49.126   7.548  1.00  0.00     0.242 C 
ATOM      2  O   UNL     1      -2.697  49.833   8.524  1.00  0.00    -0.273 OA
ENDROOT
BRANCH   1   3
ATOM      3  C   UNL     1      -3.537  49.733   6.276  1.00  0.00     0.097 C 
BRANCH   3   4
ATOM      4  N   UNL     1      -2.655  50.735   5.659  1.00  0.00    -0.345 N 
ATOM      5  C   UNL     1      -3.119  51.892   5.200  1.00  0.00     0.242 C 
ATOM      6  O   UNL     1      -4.309  52.205   5.221  1.00  0.00    -0.273 OA
BRANCH   5   7
ATOM      7  C   UNL     1      -2.079  52.854   4.625  1.00  0.00     0.105 C 
ATOM      8  C   UNL     1      -1.172  53.372   5.744  1.00  0.00    -0.036 C 
BRANCH   7   9
ATOM      9  N   UNL     1      -1.303  52.082   3.643  1.00  0.00    -0.343 N 
ATOM     10  C   UNL     1      -0.618  52.652   2.654  1.00  0.00     0.245 C 
ATOM     11  O   UNL     1      -0.519  53.867   2.492  1.00  0.00    -0.273 OA
BRANCH  10  12
ATOM     12  C   UNL     1       0.074  51.666   1.707  1.00  0.00     0.133 C 
BRANCH  12  13
ATOM     13  N   UNL     1       1.317  51.105   2.262  1.00  0.00    -0.332 N 
ATOM     14  C   UNL     1       1.829  49.760   1.948  1.00  0.00     0.010 C 
BRANCH  13  15
ATOM     15  C   UNL     1       2.019  51.837   3.126  1.00  0.00     0.219 C 
ATOM     16  O   UNL     1       1.925  51.702   4.347  1.00  0.00    -0.275 OA
ATOM     17  C   UNL     1       2.986  52.875   2.548  1.00  0.00     0.015 C 
ENDBRANCH  13  15
ENDBRANCH  12  13
BRANCH  12  18
ATOM     18  C   UNL     1       0.373  52.373   0.383  1.00  0.00     0.073 C 
ATOM     19  O   UNL     1      -0.591  51.990  -0.602  1.00  0.00    -0.394 OA
ENDBRANCH  12  18
ENDBRANCH  10  12
ENDBRANCH   7   9
ENDBRANCH   5   7
ENDBRANCH   3   4
ENDBRANCH   1   3
BRANCH   1  20
ATOM     20  N   UNL     1      -2.658  47.824   7.506  1.00  0.00    -0.328 N 
ATOM     21  C   UNL     1      -2.551  47.201   6.177  1.00  0.00     0.010 C 
BRANCH  20  22
ATOM     22  C   UNL     1      -2.457  47.083   8.760  1.00  0.00     0.136 C 
BRANCH  22  23
ATOM     23  C   UNL     1      -0.984  47.047   9.179  1.00  0.00     0.248 C 
ATOM     24  O   UNL     1      -0.109  47.607   8.522  1.00  0.00    -0.272 OA
ATOM     25  N   UNL     1      -0.770  46.318  10.271  1.00  0.00    -0.342 N 
BRANCH  25  26
ATOM     26  C   UNL     1       0.547  46.068  10.874  1.00  0.00     0.105 CG0
ATOM     27  C   UNL     1       0.946  47.235  11.783  1.00  0.00    -0.036 C 
ATOM     28  G   UNL     1       0.405  44.786  11.696  1.00  0.00     0.000 G0
ENDBRANCH  25  26
ENDBRANCH  22  23
BRANCH  22  29
ATOM     29  C   UNL     1      -2.957  45.646   8.586  1.00  0.00    -0.015 A 
ATOM     30  C   UNL     1      -2.042  44.598   8.553  1.00  0.00    -0.045 A 
ATOM     31  C   UNL     1      -4.314  45.372   8.443  1.00  0.00    -0.053 A 
ATOM     32  C   UNL     1      -2.453  43.279   8.386  1.00  0.00     0.028 A 
ATOM     33  C   UNL     1      -4.734  44.056   8.263  1.00  0.00    -0.019 A 
ATOM     34  C   UNL     1      -3.813  43.013   8.232  1.00  0.00     0.123 A 
ATOM     35  O   UNL     1      -4.253  41.737   8.054  1.00  0.00    -0.507 OA
BRANCH  32  36
ATOM     36  C   UNL     1      -1.486  42.280   8.435  1.00  0.00     0.027 A 
ATOM     37  C   UNL     1      -0.649  42.226   9.546  1.00  0.00    -0.047 A 
ATOM     38  C   UNL     1      -1.262  41.402   7.374  1.00  0.00     0.123 A 
ATOM     39  C   UNL     1       0.405  41.323   9.615  1.00  0.00    -0.045 A 
ATOM     40  C   UNL     1      -0.210  40.492   7.437  1.00  0.00    -0.019 A 
ATOM     41  O   UNL     1      -2.054  41.436   6.271  1.00  0.00    -0.507 OA
ATOM     42  C   UNL     1       0.624  40.450   8.550  1.00  0.00    -0.055 A 
BRANCH  39  43
ATOM     43  C   UNL     1       1.335  41.294  10.832  1.00  0.00    -0.002 C 
BRANCH  43  44
ATOM     44  C   UNL     1       1.042  42.398  11.854  1.00  0.00     0.073 C 
BRANCH  44  45
ATOM     45  N   UNL     1       1.057  43.718  11.202  1.00  0.00    -0.346 N 
ATOM     46  C   UNL     1       0.423  44.779  11.691  1.00  0.00     0.242 CG0
ATOM     47  O   UNL     1      -0.244  44.764  12.724  1.00  0.00    -0.273 OA
ATOM     48  G   UNL     1       0.535  46.057  10.857  1.00  0.00     0.000 G0
ENDBRANCH  44  45
BRANCH  44  49
ATOM     49  C   UNL     1       2.067  42.327  12.988  1.00  0.00     0.064 C 
ATOM     50  O   UNL     1       3.239  42.637  12.780  1.00  0.00    -0.548 OA
ATOM     51  O   UNL     1       1.730  41.962  14.114  1.00  0.00    -0.548 OA
ENDBRANCH  44  49
ENDBRANCH  43  44
ENDBRANCH  39  43
ENDBRANCH  32  36
ENDBRANCH  22  29
ENDBRANCH  20  22
ENDBRANCH   1  20
TORSDOF 11
ENDMDL
MODEL 15
REMARK VINA RESULT:   -10.067     10.103     17.585
REMARK INTER + INTRA:         -12.571
REMARK INTER:                 -11.904
REMARK INTRA:                  -0.667
REMARK UNBOUND:                 8.088
REMARK SMILES CC(=O)N(C)[C@H](CO)C(=O)N[C@H](C)C(=O)NCC(=O)N(C)[C@@H]1C(=O)N[C@@H](C)C(=O)N[C@H](C(=O)[O-])Cc2ccc(O)c(c2)-c2cc1ccc2O
REMARK SMILES IDX 18 1 19 2 17 3 16 4 14 5 15 6 12 7 13 8 11 9 9 10 10 11 6 12
REMARK SMILES IDX 4 13 5 14 2 15 3 16 1 17 7 18 8 19 20 20 21 21 22 22 23 23
REMARK SMILES IDX 24 24 25 25 26 26 27 27 45 29 44 30 46 31 43 32 47 33 48 34
REMARK SMILES IDX 49 35 41 36 42 37 39 38 36 39 38 40 40 41 37 42 35 43 31 44
REMARK SMILES IDX 30 45 28 46 29 47 32 49 33 50 34 51
REMARK H PARENT
REMARK Flexibility Score: 80.00
ROOT
ATOM      1  C   UNL     1      -3.188  48.815   7.140  1.00  0.00     0.242 C 
ATOM      2  O   UNL     1      -2.861  49.716   6.369  1.00  0.00    -0.273 OA
ENDROOT
BRANCH   1   3
ATOM      3  C   UNL     1      -4.420  48.967   8.037  1.00  0.00     0.097 C 
BRANCH   3   4
ATOM      4  N   UNL     1      -5.530  49.655   7.359  1.00  0.00    -0.345 N 
ATOM      5  C   UNL     1      -5.906  50.883   7.698  1.00  0.00     0.242 C 
ATOM      6  O   UNL     1      -5.389  51.526   8.611  1.00  0.00    -0.273 OA
BRANCH   5   7
ATOM      7  C   UNL     1      -7.045  51.488   6.878  1.00  0.00     0.105 C 
ATOM      8  C   UNL     1      -8.102  50.421   6.583  1.00  0.00    -0.036 C 
BRANCH   7   9
ATOM      9  N   UNL     1      -7.614  52.568   7.698  1.00  0.00    -0.343 N 
ATOM     10  C   UNL     1      -7.560  53.851   7.344  1.00  0.00     0.245 C 
ATOM     11  O   UNL     1      -7.085  54.256   6.284  1.00  0.00    -0.273 OA
BRANCH  10  12
ATOM     12  C   UNL     1      -8.159  54.820   8.366  1.00  0.00     0.133 C 
BRANCH  12  13
ATOM     13  N   UNL     1      -9.407  55.451   7.905  1.00  0.00    -0.332 N 
ATOM     14  C   UNL     1      -9.495  56.366   6.754  1.00  0.00     0.010 C 
BRANCH  13  15
ATOM     15  C   UNL     1     -10.531  55.213   8.579  1.00  0.00     0.219 C 
ATOM     16  O   UNL     1     -10.909  55.915   9.518  1.00  0.00    -0.275 OA
ATOM     17  C   UNL     1     -11.377  54.014   8.138  1.00  0.00     0.015 C 
ENDBRANCH  13  15
ENDBRANCH  12  13
BRANCH  12  18
ATOM     18  C   UNL     1      -7.126  55.902   8.694  1.00  0.00     0.073 C 
ATOM     19  O   UNL     1      -5.992  55.312   9.336  1.00  0.00    -0.394 OA
ENDBRANCH  12  18
ENDBRANCH  10  12
ENDBRANCH   7   9
ENDBRANCH   5   7
ENDBRANCH   3   4
ENDBRANCH   1   3
BRANCH   1  20
ATOM     20  N   UNL     1      -2.542  47.653   7.215  1.00  0.00    -0.328 N 
ATOM     21  C   UNL     1      -1.998  47.102   5.963  1.00  0.00     0.010 C 
BRANCH  20  22
ATOM     22  C   UNL     1      -2.390  46.989   8.519  1.00  0.00     0.136 C 
BRANCH  22  23
ATOM     23  C   UNL     1      -0.935  46.979   8.995  1.00  0.00     0.248 C 
ATOM     24  O   UNL     1      -0.052  47.592   8.397  1.00  0.00    -0.272 OA
ATOM     25  N   UNL     1      -0.741  46.213  10.066  1.00  0.00    -0.342 N 
BRANCH  25  26
ATOM     26  C   UNL     1       0.559  45.979  10.711  1.00  0.00     0.105 CG0
ATOM     27  C   UNL     1       0.940  47.174  11.589  1.00  0.00    -0.036 C 
ATOM     28  G   UNL     1       0.388  44.727  11.574  1.00  0.00     0.000 G0
ENDBRANCH  25  26
ENDBRANCH  22  23
BRANCH  22  29
ATOM     29  C   UNL     1      -2.886  45.544   8.413  1.00  0.00    -0.015 A 
ATOM     30  C   UNL     1      -1.966  44.499   8.424  1.00  0.00    -0.045 A 
ATOM     31  C   UNL     1      -4.242  45.259   8.289  1.00  0.00    -0.053 A 
ATOM     32  C   UNL     1      -2.373  43.172   8.319  1.00  0.00     0.028 A 
ATOM     33  C   UNL     1      -4.657  43.934   8.172  1.00  0.00    -0.019 A 
ATOM     34  C   UNL     1      -3.733  42.894   8.184  1.00  0.00     0.123 A 
ATOM     35  O   UNL     1      -4.168  41.610   8.067  1.00  0.00    -0.507 OA
BRANCH  32  36
ATOM     36  C   UNL     1      -1.402  42.180   8.408  1.00  0.00     0.027 A 
ATOM     37  C   UNL     1      -0.618  42.127   9.557  1.00  0.00    -0.047 A 
ATOM     38  C   UNL     1      -1.122  41.309   7.355  1.00  0.00     0.123 A 
ATOM     39  C   UNL     1       0.439  41.231   9.672  1.00  0.00    -0.045 A 
ATOM     40  C   UNL     1      -0.067  40.406   7.463  1.00  0.00    -0.019 A 
ATOM     41  O   UNL     1      -1.862  41.342   6.217  1.00  0.00    -0.507 OA
ATOM     42  C   UNL     1       0.714  40.365   8.615  1.00  0.00    -0.055 A 
BRANCH  39  43
ATOM     43  C   UNL     1       1.311  41.203  10.931  1.00  0.00    -0.002 C 
BRANCH  43  44
ATOM     44  C   UNL     1       1.031  42.360  11.897  1.00  0.00     0.073 C 
BRANCH  44  45
ATOM     45  N   UNL     1       1.076  43.646  11.183  1.00  0.00    -0.346 N 
ATOM     46  C   UNL     1       0.411  44.725  11.583  1.00  0.00     0.242 CG0
ATOM     47  O   UNL     1      -0.315  44.755  12.575  1.00  0.00    -0.273 OA
ATOM     48  G   UNL     1       0.564  45.962  10.695  1.00  0.00     0.000 G0
ENDBRANCH  44  45
BRANCH  44  49
ATOM     49  C   UNL     1       2.045  42.323  13.043  1.00  0.00     0.064 C 
ATOM     50  O   UNL     1       3.205  42.684  12.851  1.00  0.00    -0.548 OA
ATOM     51  O   UNL     1       1.711  41.935  14.161  1.00  0.00    -0.548 OA
ENDBRANCH  44  49
ENDBRANCH  43  44
ENDBRANCH  39  43
ENDBRANCH  32  36
ENDBRANCH  22  29
ENDBRANCH  20  22
ENDBRANCH   1  20
TORSDOF 11
ENDMDL
MODEL 16
REMARK VINA RESULT:   -10.052      2.227      4.061
REMARK INTER + INTRA:         -12.540
REMARK INTER:                 -11.260
REMARK INTRA:                  -1.281
REMARK UNBOUND:                 8.088
REMARK SMILES CC(=O)N(C)[C@H](CO)C(=O)N[C@H](C)C(=O)NCC(=O)N(C)[C@@H]1C(=O)N[C@@H](C)C(=O)N[C@H](C(=O)[O-])Cc2ccc(O)c(c2)-c2cc1ccc2O
REMARK SMILES IDX 18 1 19 2 17 3 16 4 14 5 15 6 12 7 13 8 11 9 9 10 10 11 6 12
REMARK SMILES IDX 4 13 5 14 2 15 3 16 1 17 7 18 8 19 20 20 21 21 22 22 23 23
REMARK SMILES IDX 24 24 25 25 26 26 27 27 45 29 44 30 46 31 43 32 47 33 48 34
REMARK SMILES IDX 49 35 41 36 42 37 39 38 36 39 38 40 40 41 37 42 35 43 31 44
REMARK SMILES IDX 30 45 28 46 29 47 32 49 33 50 34 51
REMARK H PARENT
REMARK Flexibility Score: 80.00
ROOT
ATOM      1  C   UNL     1      -2.378  31.399  15.998  1.00  0.00     0.242 C 
ATOM      2  O   UNL     1      -3.446  30.794  15.929  1.00  0.00    -0.273 OA
ENDROOT
BRANCH   1   3
ATOM      3  C   UNL     1      -1.506  31.300  17.253  1.00  0.00     0.097 C 
BRANCH   3   4
ATOM      4  N   UNL     1      -0.626  30.121  17.238  1.00  0.00    -0.345 N 
ATOM      5  C   UNL     1      -0.441  29.369  18.317  1.00  0.00     0.242 C 
ATOM      6  O   UNL     1      -0.955  29.607  19.409  1.00  0.00    -0.273 OA
BRANCH   5   7
ATOM      7  C   UNL     1       0.465  28.150  18.141  1.00  0.00     0.105 C 
ATOM      8  C   UNL     1      -0.232  27.101  17.272  1.00  0.00    -0.036 C 
BRANCH   7   9
ATOM      9  N   UNL     1       1.687  28.639  17.484  1.00  0.00    -0.343 N 
ATOM     10  C   UNL     1       2.808  28.908  18.150  1.00  0.00     0.245 C 
ATOM     11  O   UNL     1       2.954  28.728  19.359  1.00  0.00    -0.273 OA
BRANCH  10  12
ATOM     12  C   UNL     1       3.945  29.462  17.287  1.00  0.00     0.133 C 
BRANCH  12  13
ATOM     13  N   UNL     1       3.941  30.931  17.194  1.00  0.00    -0.332 N 
ATOM     14  C   UNL     1       2.726  31.761  17.274  1.00  0.00     0.010 C 
BRANCH  13  15
ATOM     15  C   UNL     1       5.096  31.563  16.995  1.00  0.00     0.219 C 
ATOM     16  O   UNL     1       5.937  31.714  17.883  1.00  0.00    -0.275 OA
ATOM     17  C   UNL     1       5.369  32.106  15.588  1.00  0.00     0.015 C 
ENDBRANCH  13  15
ENDBRANCH  12  13
BRANCH  12  18
ATOM     18  C   UNL     1       3.848  28.857  15.884  1.00  0.00     0.073 C 
ATOM     19  O   UNL     1       5.159  28.644  15.354  1.00  0.00    -0.394 OA
ENDBRANCH  12  18
ENDBRANCH  10  12
ENDBRANCH   7   9
ENDBRANCH   5   7
ENDBRANCH   3   4
ENDBRANCH   1   3
BRANCH   1  20
ATOM     20  N   UNL     1      -1.888  32.126  14.995  1.00  0.00    -0.328 N 
ATOM     21  C   UNL     1      -2.500  31.943  13.669  1.00  0.00     0.010 C 
BRANCH  20  22
ATOM     22  C   UNL     1      -0.790  33.071  15.251  1.00  0.00     0.136 C 
BRANCH  22  23
ATOM     23  C   UNL     1      -1.278  34.520  15.310  1.00  0.00     0.248 C 
ATOM     24  O   UNL     1      -2.448  34.801  15.563  1.00  0.00    -0.272 OA
ATOM     25  N   UNL     1      -0.328  35.404  15.014  1.00  0.00    -0.342 N 
BRANCH  25  26
ATOM     26  C   UNL     1      -0.520  36.860  14.947  1.00  0.00     0.105 CG0
ATOM     27  C   UNL     1      -0.668  37.442  16.355  1.00  0.00    -0.036 C 
ATOM     28  G   UNL     1       0.731  37.425  14.273  1.00  0.00     0.000 G0
ENDBRANCH  25  26
ENDBRANCH  22  23
BRANCH  22  29
ATOM     29  C   UNL     1       0.256  32.945  14.138  1.00  0.00    -0.015 A 
ATOM     30  C   UNL     1       0.233  33.837  13.070  1.00  0.00    -0.045 A 
ATOM     31  C   UNL     1       1.220  31.942  14.170  1.00  0.00    -0.053 A 
ATOM     32  C   UNL     1       1.158  33.753  12.034  1.00  0.00     0.028 A 
ATOM     33  C   UNL     1       2.142  31.843  13.131  1.00  0.00    -0.019 A 
ATOM     34  C   UNL     1       2.114  32.738  12.066  1.00  0.00     0.123 A 
ATOM     35  O   UNL     1       3.027  32.616  11.064  1.00  0.00    -0.507 OA
BRANCH  32  36
ATOM     36  C   UNL     1       1.116  34.723  11.037  1.00  0.00     0.027 A 
ATOM     37  C   UNL     1       1.326  36.050  11.400  1.00  0.00    -0.047 A 
ATOM     38  C   UNL     1       0.775  34.427   9.717  1.00  0.00     0.123 A 
ATOM     39  C   UNL     1       1.196  37.083  10.478  1.00  0.00    -0.045 A 
ATOM     40  C   UNL     1       0.645  35.455   8.787  1.00  0.00    -0.019 A 
ATOM     41  O   UNL     1       0.553  33.143   9.333  1.00  0.00    -0.507 OA
ATOM     42  C   UNL     1       0.853  36.779   9.162  1.00  0.00    -0.055 A 
BRANCH  39  43
ATOM     43  C   UNL     1       1.403  38.541  10.900  1.00  0.00    -0.002 C 
BRANCH  43  44
ATOM     44  C   UNL     1       1.655  38.716  12.401  1.00  0.00     0.073 C 
BRANCH  44  45
ATOM     45  N   UNL     1       0.549  38.132  13.178  1.00  0.00    -0.346 N 
ATOM     46  C   UNL     1       0.735  37.403  14.274  1.00  0.00     0.242 CG0
ATOM     47  O   UNL     1       1.842  37.134  14.740  1.00  0.00    -0.273 OA
ATOM     48  G   UNL     1      -0.536  36.860  14.930  1.00  0.00     0.000 G0
ENDBRANCH  44  45
BRANCH  44  49
ATOM     49  C   UNL     1       1.832  40.203  12.717  1.00  0.00     0.064 C 
ATOM     50  O   UNL     1       2.042  40.567  13.874  1.00  0.00    -0.548 OA
ATOM     51  O   UNL     1       1.767  41.045  11.823  1.00  0.00    -0.548 OA
ENDBRANCH  44  49
ENDBRANCH  43  44
ENDBRANCH  39  43
ENDBRANCH  32  36
ENDBRANCH  22  29
ENDBRANCH  20  22
ENDBRANCH   1  20
TORSDOF 11
ENDMDL
MODEL 17
REMARK VINA RESULT:   -10.045      5.700      9.038
REMARK INTER + INTRA:         -12.526
REMARK INTER:                 -11.930
REMARK INTRA:                  -0.596
REMARK UNBOUND:                 8.088
REMARK SMILES CC(=O)N(C)[C@H](CO)C(=O)N[C@H](C)C(=O)NCC(=O)N(C)[C@@H]1C(=O)N[C@@H](C)C(=O)N[C@H](C(=O)[O-])Cc2ccc(O)c(c2)-c2cc1ccc2O
REMARK SMILES IDX 18 1 19 2 17 3 16 4 14 5 15 6 12 7 13 8 11 9 9 10 10 11 6 12
REMARK SMILES IDX 4 13 5 14 2 15 3 16 1 17 7 18 8 19 20 20 21 21 22 22 23 23
REMARK SMILES IDX 24 24 25 25 26 26 27 27 45 29 44 30 46 31 43 32 47 33 48 34
REMARK SMILES IDX 49 35 41 36 42 37 39 38 36 39 38 40 40 41 37 42 35 43 31 44
REMARK SMILES IDX 30 45 28 46 29 47 32 49 33 50 34 51
REMARK H PARENT
REMARK Flexibility Score: 80.00
ROOT
ATOM      1  C   UNL     1       1.040  41.013  10.685  1.00  0.00     0.242 C 
ATOM      2  O   UNL     1       2.086  41.551  11.040  1.00  0.00    -0.273 OA
ENDROOT
BRANCH   1   3
ATOM      3  C   UNL     1       0.962  39.492  10.527  1.00  0.00     0.097 C 
BRANCH   3   4
ATOM      4  N   UNL     1       1.177  38.781  11.797  1.00  0.00    -0.345 N 
ATOM      5  C   UNL     1       1.820  37.619  11.851  1.00  0.00     0.242 C 
ATOM      6  O   UNL     1       2.254  37.034  10.860  1.00  0.00    -0.273 OA
BRANCH   5   7
ATOM      7  C   UNL     1       2.009  37.019  13.245  1.00  0.00     0.105 C 
ATOM      8  C   UNL     1       2.373  38.120  14.244  1.00  0.00    -0.036 C 
BRANCH   7   9
ATOM      9  N   UNL     1       0.724  36.399  13.602  1.00  0.00    -0.343 N 
ATOM     10  C   UNL     1       0.620  35.409  14.486  1.00  0.00     0.245 C 
ATOM     11  O   UNL     1       1.566  34.952  15.128  1.00  0.00    -0.273 OA
BRANCH  10  12
ATOM     12  C   UNL     1      -0.800  34.865  14.671  1.00  0.00     0.133 C 
BRANCH  12  13
ATOM     13  N   UNL     1      -1.453  35.355  15.896  1.00  0.00    -0.332 N 
ATOM     14  C   UNL     1      -1.279  34.745  17.226  1.00  0.00     0.010 C 
BRANCH  13  15
ATOM     15  C   UNL     1      -2.280  36.395  15.808  1.00  0.00     0.219 C 
ATOM     16  O   UNL     1      -2.535  37.129  16.764  1.00  0.00    -0.275 OA
ATOM     17  C   UNL     1      -2.920  36.672  14.444  1.00  0.00     0.015 C 
ENDBRANCH  13  15
ENDBRANCH  12  13
BRANCH  12  18
ATOM     18  C   UNL     1      -0.750  33.335  14.690  1.00  0.00     0.073 C 
ATOM     19  O   UNL     1      -0.105  32.855  13.507  1.00  0.00    -0.394 OA
ENDBRANCH  12  18
ENDBRANCH  10  12
ENDBRANCH   7   9
ENDBRANCH   5   7
ENDBRANCH   3   4
ENDBRANCH   1   3
BRANCH   1  20
ATOM     20  N   UNL     1      -0.087  41.688  10.465  1.00  0.00    -0.328 N 
ATOM     21  C   UNL     1      -1.294  41.233  11.174  1.00  0.00     0.010 C 
BRANCH  20  22
ATOM     22  C   UNL     1      -0.076  42.843   9.555  1.00  0.00     0.136 C 
BRANCH  22  23
ATOM     23  C   UNL     1      -0.227  44.170  10.305  1.00  0.00     0.248 C 
ATOM     24  O   UNL     1      -0.063  44.250  11.521  1.00  0.00    -0.272 OA
ATOM     25  N   UNL     1      -0.593  45.177   9.516  1.00  0.00    -0.342 N 
BRANCH  25  26
ATOM     26  C   UNL     1      -0.857  46.550   9.968  1.00  0.00     0.105 CG0
ATOM     27  C   UNL     1       0.445  47.223  10.411  1.00  0.00    -0.036 C 
ATOM     28  G   UNL     1      -1.449  47.290   8.767  1.00  0.00     0.000 G0
ENDBRANCH  25  26
ENDBRANCH  22  23
BRANCH  22  29
ATOM     29  C   UNL     1      -1.226  42.709   8.551  1.00  0.00    -0.015 A 
ATOM     30  C   UNL     1      -2.349  43.522   8.679  1.00  0.00    -0.045 A 
ATOM     31  C   UNL     1      -1.174  41.774   7.523  1.00  0.00    -0.053 A 
ATOM     32  C   UNL     1      -3.420  43.426   7.796  1.00  0.00     0.028 A 
ATOM     33  C   UNL     1      -2.247  41.662   6.641  1.00  0.00    -0.019 A 
ATOM     34  C   UNL     1      -3.366  42.478   6.774  1.00  0.00     0.123 A 
ATOM     35  O   UNL     1      -4.399  42.346   5.898  1.00  0.00    -0.507 OA
BRANCH  32  36
ATOM     36  C   UNL     1      -4.475  44.320   7.945  1.00  0.00     0.027 A 
ATOM     37  C   UNL     1      -4.219  45.676   7.765  1.00  0.00    -0.047 A 
ATOM     38  C   UNL     1      -5.744  43.919   8.362  1.00  0.00     0.123 A 
ATOM     39  C   UNL     1      -5.198  46.636   8.000  1.00  0.00    -0.045 A 
ATOM     40  C   UNL     1      -6.731  44.873   8.597  1.00  0.00    -0.019 A 
ATOM     41  O   UNL     1      -6.023  42.604   8.556  1.00  0.00    -0.507 OA
ATOM     42  C   UNL     1      -6.463  46.227   8.419  1.00  0.00    -0.055 A 
BRANCH  39  43
ATOM     43  C   UNL     1      -4.893  48.127   7.825  1.00  0.00    -0.002 C 
BRANCH  43  44
ATOM     44  C   UNL     1      -3.395  48.447   7.793  1.00  0.00     0.073 C 
BRANCH  44  45
ATOM     45  N   UNL     1      -2.693  47.727   8.867  1.00  0.00    -0.346 N 
ATOM     46  C   UNL     1      -1.438  47.301   8.760  1.00  0.00     0.242 CG0
ATOM     47  O   UNL     1      -0.745  47.453   7.755  1.00  0.00    -0.273 OA
ATOM     48  G   UNL     1      -0.889  46.550   9.975  1.00  0.00     0.000 G0
ENDBRANCH  44  45
BRANCH  44  49
ATOM     49  C   UNL     1      -3.195  49.960   7.914  1.00  0.00     0.064 C 
ATOM     50  O   UNL     1      -4.004  50.640   8.544  1.00  0.00    -0.548 OA
ATOM     51  O   UNL     1      -2.228  50.507   7.386  1.00  0.00    -0.548 OA
ENDBRANCH  44  49
ENDBRANCH  43  44
ENDBRANCH  39  43
ENDBRANCH  32  36
ENDBRANCH  22  29
ENDBRANCH  20  22
ENDBRANCH   1  20
TORSDOF 11
ENDMDL
MODEL 18
REMARK VINA RESULT:    -9.927      1.542      2.333
REMARK INTER + INTRA:         -12.284
REMARK INTER:                 -11.640
REMARK INTRA:                  -0.644
REMARK UNBOUND:                 8.088
REMARK SMILES CC(=O)N(C)[C@H](CO)C(=O)N[C@H](C)C(=O)NCC(=O)N(C)[C@@H]1C(=O)N[C@@H](C)C(=O)N[C@H](C(=O)[O-])Cc2ccc(O)c(c2)-c2cc1ccc2O
REMARK SMILES IDX 18 1 19 2 17 3 16 4 14 5 15 6 12 7 13 8 11 9 9 10 10 11 6 12
REMARK SMILES IDX 4 13 5 14 2 15 3 16 1 17 7 18 8 19 20 20 21 21 22 22 23 23
REMARK SMILES IDX 24 24 25 25 26 26 27 27 45 29 44 30 46 31 43 32 47 33 48 34
REMARK SMILES IDX 49 35 41 36 42 37 39 38 36 39 38 40 40 41 37 42 35 43 31 44
REMARK SMILES IDX 30 45 28 46 29 47 32 49 33 50 34 51
REMARK H PARENT
REMARK Flexibility Score: 80.00
ROOT
ATOM      1  C   UNL     1      -0.307  32.461  11.107  1.00  0.00     0.242 C 
ATOM      2  O   UNL     1      -1.153  31.607  10.852  1.00  0.00    -0.273 OA
ENDROOT
BRANCH   1   3
ATOM      3  C   UNL     1       1.066  32.058  11.652  1.00  0.00     0.097 C 
BRANCH   3   4
ATOM      4  N   UNL     1       0.993  31.504  13.013  1.00  0.00    -0.345 N 
ATOM      5  C   UNL     1       1.359  32.207  14.079  1.00  0.00     0.242 C 
ATOM      6  O   UNL     1       1.812  33.350  14.018  1.00  0.00    -0.273 OA
BRANCH   5   7
ATOM      7  C   UNL     1       1.186  31.518  15.432  1.00  0.00     0.105 C 
ATOM      8  C   UNL     1       0.032  30.515  15.365  1.00  0.00    -0.036 C 
BRANCH   7   9
ATOM      9  N   UNL     1       2.456  30.829  15.708  1.00  0.00    -0.343 N 
ATOM     10  C   UNL     1       3.412  31.354  16.471  1.00  0.00     0.245 C 
ATOM     11  O   UNL     1       3.314  32.429  17.062  1.00  0.00    -0.273 OA
BRANCH  10  12
ATOM     12  C   UNL     1       4.679  30.500  16.584  1.00  0.00     0.133 C 
BRANCH  12  13
ATOM     13  N   UNL     1       5.341  30.615  17.894  1.00  0.00    -0.332 N 
ATOM     14  C   UNL     1       5.994  31.840  18.385  1.00  0.00     0.010 C 
BRANCH  13  15
ATOM     15  C   UNL     1       5.387  29.543  18.683  1.00  0.00     0.219 C 
ATOM     16  O   UNL     1       6.442  29.077  19.117  1.00  0.00    -0.275 OA
ATOM     17  C   UNL     1       4.054  28.888  19.060  1.00  0.00     0.015 C 
ENDBRANCH  13  15
ENDBRANCH  12  13
BRANCH  12  18
ATOM     18  C   UNL     1       5.655  30.906  15.476  1.00  0.00     0.073 C 
ATOM     19  O   UNL     1       5.200  30.400  14.218  1.00  0.00    -0.394 OA
ENDBRANCH  12  18
ENDBRANCH  10  12
ENDBRANCH   7   9
ENDBRANCH   5   7
ENDBRANCH   3   4
ENDBRANCH   1   3
BRANCH   1  20
ATOM     20  N   UNL     1      -0.496  33.761  10.887  1.00  0.00    -0.328 N 
ATOM     21  C   UNL     1      -1.823  34.177  10.405  1.00  0.00     0.010 C 
BRANCH  20  22
ATOM     22  C   UNL     1       0.599  34.709  11.145  1.00  0.00     0.136 C 
BRANCH  22  23
ATOM     23  C   UNL     1       0.250  35.708  12.252  1.00  0.00     0.248 C 
ATOM     24  O   UNL     1      -0.758  35.582  12.945  1.00  0.00    -0.272 OA
ATOM     25  N   UNL     1       1.112  36.718  12.333  1.00  0.00    -0.342 N 
BRANCH  25  26
ATOM     26  C   UNL     1       1.002  37.847  13.269  1.00  0.00     0.105 CG0
ATOM     27  C   UNL     1       1.489  37.432  14.661  1.00  0.00    -0.036 C 
ATOM     28  G   UNL     1       1.896  38.955  12.709  1.00  0.00     0.000 G0
ENDBRANCH  25  26
ENDBRANCH  22  23
BRANCH  22  29
ATOM     29  C   UNL     1       0.911  35.483   9.860  1.00  0.00    -0.015 A 
ATOM     30  C   UNL     1       0.501  36.807   9.738  1.00  0.00    -0.045 A 
ATOM     31  C   UNL     1       1.586  34.877   8.805  1.00  0.00    -0.053 A 
ATOM     32  C   UNL     1       0.754  37.544   8.585  1.00  0.00     0.028 A 
ATOM     33  C   UNL     1       1.834  35.603   7.642  1.00  0.00    -0.019 A 
ATOM     34  C   UNL     1       1.421  36.927   7.526  1.00  0.00     0.123 A 
ATOM     35  O   UNL     1       1.677  37.611   6.378  1.00  0.00    -0.507 OA
BRANCH  32  36
ATOM     36  C   UNL     1       0.376  38.882   8.565  1.00  0.00     0.027 A 
ATOM     37  C   UNL     1       0.888  39.727   9.546  1.00  0.00    -0.047 A 
ATOM     38  C   UNL     1      -0.569  39.380   7.667  1.00  0.00     0.123 A 
ATOM     39  C   UNL     1       0.473  41.050   9.651  1.00  0.00    -0.045 A 
ATOM     40  C   UNL     1      -0.988  40.705   7.764  1.00  0.00    -0.019 A 
ATOM     41  O   UNL     1      -1.096  38.579   6.705  1.00  0.00    -0.507 OA
ATOM     42  C   UNL     1      -0.472  41.539   8.751  1.00  0.00    -0.055 A 
BRANCH  39  43
ATOM     43  C   UNL     1       1.026  41.959  10.753  1.00  0.00    -0.002 C 
BRANCH  43  44
ATOM     44  C   UNL     1       1.937  41.233  11.749  1.00  0.00     0.073 C 
BRANCH  44  45
ATOM     45  N   UNL     1       1.255  40.051  12.300  1.00  0.00    -0.346 N 
ATOM     46  C   UNL     1       1.902  38.974  12.735  1.00  0.00     0.242 CG0
ATOM     47  O   UNL     1       3.125  38.851  12.710  1.00  0.00    -0.273 OA
ATOM     48  G   UNL     1       1.018  37.836  13.250  1.00  0.00     0.000 G0
ENDBRANCH  44  45
BRANCH  44  49
ATOM     49  C   UNL     1       2.353  42.202  12.858  1.00  0.00     0.064 C 
ATOM     50  O   UNL     1       1.648  42.336  13.857  1.00  0.00    -0.548 OA
ATOM     51  O   UNL     1       3.393  42.852  12.762  1.00  0.00    -0.548 OA
ENDBRANCH  44  49
ENDBRANCH  43  44
ENDBRANCH  39  43
ENDBRANCH  32  36
ENDBRANCH  22  29
ENDBRANCH  20  22
ENDBRANCH   1  20
TORSDOF 11
ENDMDL
MODEL 19
REMARK VINA RESULT:    -9.861      3.124      9.665
REMARK INTER + INTRA:         -12.149
REMARK INTER:                 -11.535
REMARK INTRA:                  -0.614
REMARK UNBOUND:                 8.088
REMARK SMILES CC(=O)N(C)[C@H](CO)C(=O)N[C@H](C)C(=O)NCC(=O)N(C)[C@@H]1C(=O)N[C@@H](C)C(=O)N[C@H](C(=O)[O-])Cc2ccc(O)c(c2)-c2cc1ccc2O
REMARK SMILES IDX 18 1 19 2 17 3 16 4 14 5 15 6 12 7 13 8 11 9 9 10 10 11 6 12
REMARK SMILES IDX 4 13 5 14 2 15 3 16 1 17 7 18 8 19 20 20 21 21 22 22 23 23
REMARK SMILES IDX 24 24 25 25 26 26 27 27 45 29 44 30 46 31 43 32 47 33 48 34
REMARK SMILES IDX 49 35 41 36 42 37 39 38 36 39 38 40 40 41 37 42 35 43 31 44
REMARK SMILES IDX 30 45 28 46 29 47 32 49 33 50 34 51
REMARK H PARENT
REMARK Flexibility Score: 80.00
ROOT
ATOM      1  C   UNL     1      -2.077  32.519  14.589  1.00  0.00     0.242 C 
ATOM      2  O   UNL     1      -1.885  32.545  13.375  1.00  0.00    -0.273 OA
ENDROOT
BRANCH   1   3
ATOM      3  C   UNL     1      -1.651  33.697  15.470  1.00  0.00     0.097 C 
BRANCH   3   4
ATOM      4  N   UNL     1      -0.256  34.102  15.235  1.00  0.00    -0.345 N 
ATOM      5  C   UNL     1       0.083  35.371  15.038  1.00  0.00     0.242 C 
ATOM      6  O   UNL     1      -0.729  36.295  15.005  1.00  0.00    -0.273 OA
BRANCH   5   7
ATOM      7  C   UNL     1       1.575  35.648  14.850  1.00  0.00     0.105 C 
ATOM      8  C   UNL     1       2.356  34.332  14.856  1.00  0.00    -0.036 C 
BRANCH   7   9
ATOM      9  N   UNL     1       1.707  36.324  13.551  1.00  0.00    -0.343 N 
ATOM     10  C   UNL     1       2.342  37.484  13.401  1.00  0.00     0.245 C 
ATOM     11  O   UNL     1       2.922  38.078  14.309  1.00  0.00    -0.273 OA
BRANCH  10  12
ATOM     12  C   UNL     1       2.315  38.046  11.976  1.00  0.00     0.133 C 
BRANCH  12  13
ATOM     13  N   UNL     1       1.381  39.173  11.815  1.00  0.00    -0.332 N 
ATOM     14  C   UNL     1      -0.083  39.029  11.736  1.00  0.00     0.010 C 
BRANCH  13  15
ATOM     15  C   UNL     1       1.878  40.404  11.701  1.00  0.00     0.219 C 
ATOM     16  O   UNL     1       2.734  40.852  12.464  1.00  0.00    -0.275 OA
ATOM     17  C   UNL     1       1.351  41.273  10.554  1.00  0.00     0.015 C 
ENDBRANCH  13  15
ENDBRANCH  12  13
BRANCH  12  18
ATOM     18  C   UNL     1       1.941  36.924  11.004  1.00  0.00     0.073 C 
ATOM     19  O   UNL     1       3.034  36.664  10.118  1.00  0.00    -0.394 OA
ENDBRANCH  12  18
ENDBRANCH  10  12
ENDBRANCH   7   9
ENDBRANCH   5   7
ENDBRANCH   3   4
ENDBRANCH   1   3
BRANCH   1  20
ATOM     20  N   UNL     1      -2.699  31.515  15.206  1.00  0.00    -0.328 N 
ATOM     21  C   UNL     1      -4.151  31.645  15.409  1.00  0.00     0.010 C 
BRANCH  20  22
ATOM     22  C   UNL     1      -1.929  30.338  15.635  1.00  0.00     0.136 C 
BRANCH  22  23
ATOM     23  C   UNL     1      -1.324  30.520  17.029  1.00  0.00     0.248 C 
ATOM     24  O   UNL     1      -1.564  31.511  17.716  1.00  0.00    -0.272 OA
ATOM     25  N   UNL     1      -0.497  29.535  17.372  1.00  0.00    -0.342 N 
BRANCH  25  26
ATOM     26  C   UNL     1       0.260  29.469  18.631  1.00  0.00     0.105 CG0
ATOM     27  C   UNL     1      -0.502  28.638  19.667  1.00  0.00    -0.036 C 
ATOM     28  G   UNL     1       1.592  28.796  18.294  1.00  0.00     0.000 G0
ENDBRANCH  25  26
ENDBRANCH  22  23
BRANCH  22  29
ATOM     29  C   UNL     1      -0.797  30.081  14.634  1.00  0.00    -0.015 A 
ATOM     30  C   UNL     1       0.503  30.462  14.954  1.00  0.00    -0.045 A 
ATOM     31  C   UNL     1      -1.051  29.487  13.402  1.00  0.00    -0.053 A 
ATOM     32  C   UNL     1       1.558  30.257  14.071  1.00  0.00     0.028 A 
ATOM     33  C   UNL     1      -0.003  29.289  12.506  1.00  0.00    -0.019 A 
ATOM     34  C   UNL     1       1.295  29.671  12.832  1.00  0.00     0.123 A 
ATOM     35  O   UNL     1       2.299  29.466  11.937  1.00  0.00    -0.507 OA
BRANCH  32  36
ATOM     36  C   UNL     1       2.840  30.599  14.489  1.00  0.00     0.027 A 
ATOM     37  C   UNL     1       3.252  30.188  15.754  1.00  0.00    -0.047 A 
ATOM     38  C   UNL     1       3.681  31.417  13.735  1.00  0.00     0.123 A 
ATOM     39  C   UNL     1       4.477  30.582  16.280  1.00  0.00    -0.045 A 
ATOM     40  C   UNL     1       4.911  31.813  14.253  1.00  0.00    -0.019 A 
ATOM     41  O   UNL     1       3.305  31.843  12.501  1.00  0.00    -0.507 OA
ATOM     42  C   UNL     1       5.311  31.400  15.520  1.00  0.00    -0.055 A 
BRANCH  39  43
ATOM     43  C   UNL     1       4.904  30.145  17.684  1.00  0.00    -0.002 C 
BRANCH  43  44
ATOM     44  C   UNL     1       4.051  29.009  18.260  1.00  0.00     0.073 C 
BRANCH  44  45
ATOM     45  N   UNL     1       2.694  29.490  18.562  1.00  0.00    -0.346 N 
ATOM     46  C   UNL     1       1.595  28.793  18.288  1.00  0.00     0.242 CG0
ATOM     47  O   UNL     1       1.601  27.689  17.745  1.00  0.00    -0.273 OA
ATOM     48  G   UNL     1       0.274  29.471  18.654  1.00  0.00     0.000 G0
ENDBRANCH  44  45
BRANCH  44  49
ATOM     49  C   UNL     1       4.732  28.443  19.508  1.00  0.00     0.064 C 
ATOM     50  O   UNL     1       5.924  28.139  19.476  1.00  0.00    -0.548 OA
ATOM     51  O   UNL     1       4.098  28.289  20.551  1.00  0.00    -0.548 OA
ENDBRANCH  44  49
ENDBRANCH  43  44
ENDBRANCH  39  43
ENDBRANCH  32  36
ENDBRANCH  22  29
ENDBRANCH  20  22
ENDBRANCH   1  20
TORSDOF 11
ENDMDL
MODEL 20
REMARK VINA RESULT:    -9.736      1.669      3.369
REMARK INTER + INTRA:         -11.893
REMARK INTER:                 -10.863
REMARK INTRA:                  -1.030
REMARK UNBOUND:                 8.088
REMARK SMILES CC(=O)N(C)[C@H](CO)C(=O)N[C@H](C)C(=O)NCC(=O)N(C)[C@@H]1C(=O)N[C@@H](C)C(=O)N[C@H](C(=O)[O-])Cc2ccc(O)c(c2)-c2cc1ccc2O
REMARK SMILES IDX 18 1 19 2 17 3 16 4 14 5 15 6 12 7 13 8 11 9 9 10 10 11 6 12
REMARK SMILES IDX 4 13 5 14 2 15 3 16 1 17 7 18 8 19 20 20 21 21 22 22 23 23
REMARK SMILES IDX 24 24 25 25 26 26 27 27 45 29 44 30 46 31 43 32 47 33 48 34
REMARK SMILES IDX 49 35 41 36 42 37 39 38 36 39 38 40 40 41 37 42 35 43 31 44
REMARK SMILES IDX 30 45 28 46 29 47 32 49 33 50 34 51
REMARK H PARENT
REMARK Flexibility Score: 80.00
ROOT
ATOM      1  C   UNL     1       1.199  30.736  14.455  1.00  0.00     0.242 C 
ATOM      2  O   UNL     1       2.169  30.041  14.160  1.00  0.00    -0.273 OA
ENDROOT
BRANCH   1   3
ATOM      3  C   UNL     1       0.456  30.514  15.775  1.00  0.00     0.097 C 
BRANCH   3   4
ATOM      4  N   UNL     1       1.300  29.877  16.798  1.00  0.00    -0.345 N 
ATOM      5  C   UNL     1       0.813  29.496  17.973  1.00  0.00     0.242 C 
ATOM      6  O   UNL     1      -0.358  29.668  18.314  1.00  0.00    -0.273 OA
BRANCH   5   7
ATOM      7  C   UNL     1       1.797  28.807  18.919  1.00  0.00     0.105 C 
ATOM      8  C   UNL     1       1.402  27.341  19.108  1.00  0.00    -0.036 C 
BRANCH   7   9
ATOM      9  N   UNL     1       3.119  28.910  18.282  1.00  0.00    -0.343 N 
ATOM     10  C   UNL     1       4.240  29.107  18.973  1.00  0.00     0.245 C 
ATOM     11  O   UNL     1       4.295  29.168  20.200  1.00  0.00    -0.273 OA
BRANCH  10  12
ATOM     12  C   UNL     1       5.501  29.243  18.114  1.00  0.00     0.133 C 
BRANCH  12  13
ATOM     13  N   UNL     1       5.362  30.231  17.032  1.00  0.00    -0.332 N 
ATOM     14  C   UNL     1       5.410  29.899  15.598  1.00  0.00     0.010 C 
BRANCH  13  15
ATOM     15  C   UNL     1       5.214  31.515  17.354  1.00  0.00     0.219 C 
ATOM     16  O   UNL     1       5.811  32.042  18.294  1.00  0.00    -0.275 OA
ATOM     17  C   UNL     1       4.262  32.352  16.493  1.00  0.00     0.015 C 
ENDBRANCH  13  15
ENDBRANCH  12  13
BRANCH  12  18
ATOM     18  C   UNL     1       5.852  27.876  17.521  1.00  0.00     0.073 C 
ATOM     19  O   UNL     1       7.255  27.633  17.656  1.00  0.00    -0.394 OA
ENDBRANCH  12  18
ENDBRANCH  10  12
ENDBRANCH   7   9
ENDBRANCH   5   7
ENDBRANCH   3   4
ENDBRANCH   1   3
BRANCH   1  20
ATOM     20  N   UNL     1       0.762  31.737  13.693  1.00  0.00    -0.328 N 
ATOM     21  C   UNL     1      -0.490  31.522  12.950  1.00  0.00     0.010 C 
BRANCH  20  22
ATOM     22  C   UNL     1       1.524  32.994  13.639  1.00  0.00     0.136 C 
BRANCH  22  23
ATOM     23  C   UNL     1       0.652  34.211  13.962  1.00  0.00     0.248 C 
ATOM     24  O   UNL     1      -0.517  34.094  14.323  1.00  0.00    -0.272 OA
ATOM     25  N   UNL     1       1.277  35.369  13.760  1.00  0.00    -0.342 N 
BRANCH  25  26
ATOM     26  C   UNL     1       0.673  36.697  13.943  1.00  0.00     0.105 CG0
ATOM     27  C   UNL     1       0.781  37.133  15.406  1.00  0.00    -0.036 C 
ATOM     28  G   UNL     1       1.465  37.653  13.049  1.00  0.00     0.000 G0
ENDBRANCH  25  26
ENDBRANCH  22  23
BRANCH  22  29
ATOM     29  C   UNL     1       2.117  33.168  12.237  1.00  0.00    -0.015 A 
ATOM     30  C   UNL     1       1.566  34.106  11.369  1.00  0.00    -0.045 A 
ATOM     31  C   UNL     1       3.188  32.389  11.811  1.00  0.00    -0.053 A 
ATOM     32  C   UNL     1       2.067  34.289  10.084  1.00  0.00     0.028 A 
ATOM     33  C   UNL     1       3.689  32.557  10.522  1.00  0.00    -0.019 A 
ATOM     34  C   UNL     1       3.135  33.497   9.659  1.00  0.00     0.123 A 
ATOM     35  O   UNL     1       3.644  33.638   8.405  1.00  0.00    -0.507 OA
BRANCH  32  36
ATOM     36  C   UNL     1       1.511  35.294   9.300  1.00  0.00     0.027 A 
ATOM     37  C   UNL     1       1.481  36.588   9.812  1.00  0.00    -0.047 A 
ATOM     38  C   UNL     1       0.898  35.036   8.074  1.00  0.00     0.123 A 
ATOM     39  C   UNL     1       0.847  37.622   9.131  1.00  0.00    -0.045 A 
ATOM     40  C   UNL     1       0.264  36.066   7.384  1.00  0.00    -0.019 A 
ATOM     41  O   UNL     1       0.902  33.782   7.551  1.00  0.00    -0.507 OA
ATOM     42  C   UNL     1       0.236  37.355   7.907  1.00  0.00    -0.055 A 
BRANCH  39  43
ATOM     43  C   UNL     1       0.798  39.035   9.721  1.00  0.00    -0.002 C 
BRANCH  43  44
ATOM     44  C   UNL     1       1.463  39.150  11.096  1.00  0.00     0.073 C 
BRANCH  44  45
ATOM     45  N   UNL     1       0.833  38.223  12.050  1.00  0.00    -0.346 N 
ATOM     46  C   UNL     1       1.489  37.659  13.059  1.00  0.00     0.242 CG0
ATOM     47  O   UNL     1       2.683  37.841  13.289  1.00  0.00    -0.273 OA
ATOM     48  G   UNL     1       0.668  36.704  13.929  1.00  0.00     0.000 G0
ENDBRANCH  44  45
BRANCH  44  49
ATOM     49  C   UNL     1       1.375  40.597  11.585  1.00  0.00     0.064 C 
ATOM     50  O   UNL     1       0.301  41.051  11.977  1.00  0.00    -0.548 OA
ATOM     51  O   UNL     1       2.373  41.317  11.592  1.00  0.00    -0.548 OA
ENDBRANCH  44  49
ENDBRANCH  43  44
ENDBRANCH  39  43
ENDBRANCH  32  36
ENDBRANCH  22  29
ENDBRANCH  20  22
ENDBRANCH   1  20
TORSDOF 11
ENDMDL
