MODEL 1
REMARK VINA RESULT:    -7.820      0.000      0.000
REMARK INTER + INTRA:         -20.873
REMARK INTER:                 -18.286
REMARK INTRA:                  -2.587
REMARK UNBOUND:                -4.367
REMARK SMILES CC(O)N(C)[C@H](CO)C(O)N[C@H](C)C(O)NCC(O)N(C)[C@H]1C2CCC(O)C(C2)[C@@H]2CC(CCC2O)C[C@@H](C(O)O)N2C34OC25[C@]32C[C@]45N2C1O
REMARK SMILES IDX 17 1 18 2 19 3 20 4 21 5 22 6 50 7 51 8 49 9 46 10 48 11
REMARK SMILES IDX 47 12 43 13 45 14 42 15 44 16 38 17 37 18 32 19 31 20 33 21
REMARK SMILES IDX 30 22 34 23 35 24 36 26 39 27 40 28 41 29 23 30 29 31 24 32
REMARK SMILES IDX 28 33 25 34 26 35 27 37 16 38 14 39 15 40 12 41 13 42 11 43
REMARK SMILES IDX 9 44 10 45 6 46 4 47 5 48 2 49 3 50 1 51 7 52 8 53
REMARK H PARENT
REMARK Flexibility Score: 80.00
ROOT
ATOM      1  C   UNL     1       1.643  35.674  13.227  1.00  0.00     0.037 C 
ENDROOT
BRANCH   1   2
ATOM      2  C   UNL     1       1.529  34.821  14.494  1.00  0.00     0.120 C 
ATOM      3  O   UNL     1       2.433  34.816  15.327  1.00  0.00    -0.377 OA
BRANCH   2   4
ATOM      4  N   UNL     1       0.435  34.069  14.603  1.00  0.00    -0.273 NA
ATOM      5  C   UNL     1      -0.116  33.498  13.363  1.00  0.00    -0.010 C 
BRANCH   4   6
ATOM      6  C   UNL     1      -0.155  33.833  15.929  1.00  0.00     0.054 C 
BRANCH   6   7
ATOM      7  C   UNL     1      -0.763  32.433  16.050  1.00  0.00     0.124 C 
ATOM      8  O   UNL     1      -1.979  32.255  16.084  1.00  0.00    -0.377 OA
BRANCH   7   9
ATOM      9  N   UNL     1       0.152  31.474  16.160  1.00  0.00    -0.249 NA
ATOM     10  C   UNL     1       0.846  31.108  17.404  1.00  0.00     0.116 C 
ATOM     11  C   UNL     1       0.846  31.108  17.404  1.00  0.00     0.116 C 
ATOM     12  C   UNL     1       0.138  29.931  18.080  1.00  0.00     0.001 C 
ATOM     13  C   UNL     1       2.266  30.707  16.999  1.00  0.00     0.173 C 
ATOM     14  C   UNL     1       2.266  30.707  16.999  1.00  0.00     0.173 C 
ATOM     15  N   UNL     1       3.225  31.557  17.354  1.00  0.00    -0.232 NA
ATOM     16  O   UNL     1       2.465  29.675  16.360  1.00  0.00    -0.330 OA
BRANCH  15  17
ATOM     17  C   UNL     1       4.646  31.348  17.032  1.00  0.00     0.066 C 
BRANCH  17  18
ATOM     18  C   UNL     1       5.056  32.220  15.841  1.00  0.00    -0.030 C 
BRANCH  18  19
ATOM     19  C   UNL     1       5.513  31.416  14.620  1.00  0.00    -0.039 C 
ATOM     20  C   UNL     1       5.771  32.046  13.407  1.00  0.00    -0.045 C 
ATOM     21  C   UNL     1       5.693  30.037  14.720  1.00  0.00    -0.048 C 
ATOM     22  C   UNL     1       6.210  31.332  12.297  1.00  0.00    -0.010 C
ATOM     23  C   UNL     1       6.128  29.312  13.615  1.00  0.00    -0.026 C 
ATOM     24  C   UNL     1       6.387  29.952  12.406  1.00  0.00     0.057 C 
ATOM     25  C   UNL     1       6.552  32.041  11.150  1.00  0.00     0.000 C
ATOM     26  O   UNL     1       6.824  29.226  11.344  1.00  0.00    -0.393 OA
ENDBRANCH  18  19
ENDBRANCH  17  18
BRANCH  17  27
ATOM     27  C   UNL     1       5.541  31.670  18.231  1.00  0.00     0.167 C 
ATOM     28  O   UNL     1       5.663  32.832  18.615  1.00  0.00    -0.367 OA
ATOM     29  O   UNL     1       6.144  30.774  18.820  1.00  0.00    -0.367 OA
ENDBRANCH  17  27
ENDBRANCH  15  17
ENDBRANCH   7   9
ENDBRANCH   6   7
BRANCH   6  30
ATOM     30  C   UNL     1      -1.251  34.872  16.189  1.00  0.00    -0.021 C 
ATOM     31  C   UNL     1      -2.144  35.198  15.172  1.00  0.00    -0.043 C 
ATOM     32  C   UNL     1      -1.357  35.509  17.421  1.00  0.00    -0.046 C 
ATOM     33  C   UNL     1      -3.147  36.143  15.361  1.00  0.00    -0.010 C
ATOM     34  C   UNL     1      -2.351  36.466  17.616  1.00  0.00    -0.026 C 
ATOM     35  C   UNL     1      -3.241  36.786  16.596  1.00  0.00     0.057 C 
ATOM     36  C   UNL     1      -4.045  36.364  14.322  1.00  0.00     0.000 C
ATOM     37  O   UNL     1      -4.201  37.726  16.815  1.00  0.00    -0.393 OA
ENDBRANCH   6  30
ENDBRANCH   4   6
ENDBRANCH   2   4
ENDBRANCH   1   2
BRANCH   1  38
ATOM     38  N   UNL     1       1.359  37.095  13.475  1.00  0.00    -0.287 NA
BRANCH  38  39
ATOM     39  C   UNL     1       2.330  37.988  13.633  1.00  0.00     0.120 C 
ATOM     40  O   UNL     1       3.157  37.942  14.543  1.00  0.00    -0.377 OA
BRANCH  39  41
ATOM     41  C   UNL     1       2.383  39.115  12.601  1.00  0.00     0.046 C 
ATOM     42  C   UNL     1       1.702  38.669  11.304  1.00  0.00    -0.046 C 
BRANCH  41  43
ATOM     43  N   UNL     1       1.666  40.252  13.197  1.00  0.00    -0.284 NA
BRANCH  43  44
ATOM     44  C   UNL     1       1.637  41.461  12.640  1.00  0.00     0.123 C 
ATOM     45  O   UNL     1       2.633  42.156  12.444  1.00  0.00    -0.377 OA
BRANCH  44  46
ATOM     46  C   UNL     1       0.241  41.942  12.233  1.00  0.00     0.074 C 
BRANCH  46  47
ATOM     47  N   UNL     1      -0.012  41.829  10.787  1.00  0.00    -0.273 NA
ATOM     48  C   UNL     1       0.913  42.307   9.746  1.00  0.00    -0.010 C 
BRANCH  47  49
ATOM     49  C   UNL     1      -1.160  41.289  10.379  1.00  0.00     0.104 C 
ATOM     50  O   UNL     1      -1.740  41.648   9.354  1.00  0.00    -0.379 OA
ATOM     51  C   UNL     1      -1.755  40.167  11.237  1.00  0.00    -0.025 C 
ENDBRANCH  47  49
ENDBRANCH  46  47
BRANCH  46  52
ATOM     52  C   UNL     1       0.066  43.398  12.674  1.00  0.00     0.063 C 
ATOM     53  O   UNL     1      -0.794  43.461  13.814  1.00  0.00    -0.395 OA
ENDBRANCH  46  52
ENDBRANCH  44  46
ENDBRANCH  43  44
ENDBRANCH  41  43
ENDBRANCH  39  41
ENDBRANCH  38  39
ENDBRANCH   1  38
TORSDOF 13
ENDMDL
MODEL 2
REMARK VINA RESULT:    -7.766      1.053      1.703
REMARK INTER + INTRA:         -20.758
REMARK INTER:                 -18.050
REMARK INTRA:                  -2.709
REMARK UNBOUND:                -4.367
REMARK SMILES CC(O)N(C)[C@H](CO)C(O)N[C@H](C)C(O)NCC(O)N(C)[C@H]1C2CCC(O)C(C2)[C@@H]2CC(CCC2O)C[C@@H](C(O)O)N2C34OC25[C@]32C[C@]45N2C1O
REMARK SMILES IDX 17 1 18 2 19 3 20 4 21 5 22 6 50 7 51 8 49 9 46 10 48 11
REMARK SMILES IDX 47 12 43 13 45 14 42 15 44 16 38 17 37 18 32 19 31 20 33 21
REMARK SMILES IDX 30 22 34 23 35 24 36 26 39 27 40 28 41 29 23 30 29 31 24 32
REMARK SMILES IDX 28 33 25 34 26 35 27 37 16 38 14 39 15 40 12 41 13 42 11 43
REMARK SMILES IDX 9 44 10 45 6 46 4 47 5 48 2 49 3 50 1 51 7 52 8 53
REMARK H PARENT
REMARK Flexibility Score: 80.00
ROOT
ATOM      1  C   UNL     1       1.237  36.235  14.700  1.00  0.00     0.037 C 
ENDROOT
BRANCH   1   2
ATOM      2  C   UNL     1       1.456  34.757  15.039  1.00  0.00     0.120 C 
ATOM      3  O   UNL     1       2.543  34.367  15.459  1.00  0.00    -0.377 OA
BRANCH   2   4
ATOM      4  N   UNL     1       0.430  33.940  14.806  1.00  0.00    -0.273 NA
ATOM      5  C   UNL     1      -0.018  33.802  13.411  1.00  0.00    -0.010 C 
BRANCH   4   6
ATOM      6  C   UNL     1      -0.189  33.214  15.925  1.00  0.00     0.054 C 
BRANCH   6   7
ATOM      7  C   UNL     1      -0.476  31.751  15.576  1.00  0.00     0.124 C 
ATOM      8  O   UNL     1      -1.520  31.409  15.024  1.00  0.00    -0.377 OA
BRANCH   7   9
ATOM      9  N   UNL     1       0.485  30.921  15.974  1.00  0.00    -0.249 NA
ATOM     10  C   UNL     1       1.123  30.943  17.299  1.00  0.00     0.116 C 
ATOM     11  C   UNL     1       1.123  30.943  17.299  1.00  0.00     0.116 C 
ATOM     12  C   UNL     1       0.445  29.936  18.232  1.00  0.00     0.001 C 
ATOM     13  C   UNL     1       2.585  30.551  17.075  1.00  0.00     0.173 C 
ATOM     14  C   UNL     1       2.585  30.551  17.075  1.00  0.00     0.173 C 
ATOM     15  N   UNL     1       3.472  31.529  17.233  1.00  0.00    -0.232 NA
ATOM     16  O   UNL     1       2.880  29.405  16.740  1.00  0.00    -0.330 OA
BRANCH  15  17
ATOM     17  C   UNL     1       4.919  31.345  17.038  1.00  0.00     0.066 C 
BRANCH  17  18
ATOM     18  C   UNL     1       5.415  32.213  15.876  1.00  0.00    -0.030 C 
BRANCH  18  19
ATOM     19  C   UNL     1       5.706  31.419  14.598  1.00  0.00    -0.039 C 
ATOM     20  C   UNL     1       5.930  32.072  13.391  1.00  0.00    -0.045 C 
ATOM     21  C   UNL     1       5.770  30.028  14.640  1.00  0.00    -0.048 C 
ATOM     22  C   UNL     1       6.220  31.365  12.227  1.00  0.00    -0.010 C
ATOM     23  C   UNL     1       6.055  29.311  13.482  1.00  0.00    -0.026 C 
ATOM     24  C   UNL     1       6.280  29.972  12.278  1.00  0.00     0.057 C 
ATOM     25  C   UNL     1       6.538  32.086  11.081  1.00  0.00     0.000 C
ATOM     26  O   UNL     1       6.571  29.254  11.162  1.00  0.00    -0.393 OA
ENDBRANCH  18  19
ENDBRANCH  17  18
BRANCH  17  27
ATOM     27  C   UNL     1       5.701  31.695  18.305  1.00  0.00     0.167 C 
ATOM     28  O   UNL     1       6.025  30.809  19.094  1.00  0.00    -0.367 OA
ATOM     29  O   UNL     1       6.012  32.861  18.546  1.00  0.00    -0.367 OA
ENDBRANCH  17  27
ENDBRANCH  15  17
ENDBRANCH   7   9
ENDBRANCH   6   7
BRANCH   6  30
ATOM     30  C   UNL     1      -1.505  33.898  16.308  1.00  0.00    -0.021 C 
ATOM     31  C   UNL     1      -2.111  34.772  15.409  1.00  0.00    -0.043 C 
ATOM     32  C   UNL     1      -2.096  33.673  17.547  1.00  0.00    -0.046 C 
ATOM     33  C   UNL     1      -3.301  35.423  15.720  1.00  0.00    -0.010 C
ATOM     34  C   UNL     1      -3.281  34.330  17.871  1.00  0.00    -0.026 C 
ATOM     35  C   UNL     1      -3.883  35.202  16.968  1.00  0.00     0.057 C 
ATOM     36  C   UNL     1      -3.884  36.225  14.745  1.00  0.00     0.000 C
ATOM     37  O   UNL     1      -5.040  35.829  17.313  1.00  0.00    -0.393 OA
ENDBRANCH   6  30
ENDBRANCH   4   6
ENDBRANCH   2   4
ENDBRANCH   1   2
BRANCH   1  38
ATOM     38  N   UNL     1       2.127  36.706  13.629  1.00  0.00    -0.287 NA
BRANCH  38  39
ATOM     39  C   UNL     1       2.666  37.920  13.647  1.00  0.00     0.120 C 
ATOM     40  O   UNL     1       3.378  38.336  14.561  1.00  0.00    -0.377 OA
BRANCH  39  41
ATOM     41  C   UNL     1       2.360  38.811  12.443  1.00  0.00     0.046 C 
ATOM     42  C   UNL     1       1.967  37.949  11.241  1.00  0.00    -0.046 C 
BRANCH  41  43
ATOM     43  N   UNL     1       1.242  39.678  12.847  1.00  0.00    -0.284 NA
BRANCH  43  44
ATOM     44  C   UNL     1       1.358  40.999  12.963  1.00  0.00     0.123 C 
ATOM     45  O   UNL     1       2.017  41.562  13.837  1.00  0.00    -0.377 OA
BRANCH  44  46
ATOM     46  C   UNL     1       0.605  41.801  11.897  1.00  0.00     0.074 C 
BRANCH  46  47
ATOM     47  N   UNL     1       0.262  43.165  12.332  1.00  0.00    -0.273 NA
ATOM     48  C   UNL     1      -0.556  43.474  13.518  1.00  0.00    -0.010 C 
BRANCH  47  49
ATOM     49  C   UNL     1       0.685  44.195  11.601  1.00  0.00     0.104 C 
ATOM     50  O   UNL     1       1.849  44.599  11.626  1.00  0.00    -0.379 OA
ATOM     51  C   UNL     1      -0.338  44.880  10.689  1.00  0.00    -0.025 C 
ENDBRANCH  47  49
ENDBRANCH  46  47
BRANCH  46  52
ATOM     52  C   UNL     1      -0.671  41.047  11.514  1.00  0.00     0.063 C 
ATOM     53  O   UNL     1      -1.085  41.429  10.199  1.00  0.00    -0.395 OA
ENDBRANCH  46  52
ENDBRANCH  44  46
ENDBRANCH  43  44
ENDBRANCH  41  43
ENDBRANCH  39  41
ENDBRANCH  38  39
ENDBRANCH   1  38
TORSDOF 13
ENDMDL
MODEL 3
REMARK VINA RESULT:    -7.415      1.839      2.867
REMARK INTER + INTRA:         -20.017
REMARK INTER:                 -17.411
REMARK INTRA:                  -2.607
REMARK UNBOUND:                -4.367
REMARK SMILES CC(O)N(C)[C@H](CO)C(O)N[C@H](C)C(O)NCC(O)N(C)[C@H]1C2CCC(O)C(C2)[C@@H]2CC(CCC2O)C[C@@H](C(O)O)N2C34OC25[C@]32C[C@]45N2C1O
REMARK SMILES IDX 17 1 18 2 19 3 20 4 21 5 22 6 50 7 51 8 49 9 46 10 48 11
REMARK SMILES IDX 47 12 43 13 45 14 42 15 44 16 38 17 37 18 32 19 31 20 33 21
REMARK SMILES IDX 30 22 34 23 35 24 36 26 39 27 40 28 41 29 23 30 29 31 24 32
REMARK SMILES IDX 28 33 25 34 26 35 27 37 16 38 14 39 15 40 12 41 13 42 11 43
REMARK SMILES IDX 9 44 10 45 6 46 4 47 5 48 2 49 3 50 1 51 7 52 8 53
REMARK H PARENT
REMARK Flexibility Score: 80.00
ROOT
ATOM      1  C   UNL     1       1.779  33.949  14.205  1.00  0.00     0.037 C 
ENDROOT
BRANCH   1   2
ATOM      2  C   UNL     1       1.622  33.003  15.398  1.00  0.00     0.120 C 
ATOM      3  O   UNL     1       2.538  32.858  16.205  1.00  0.00    -0.377 OA
BRANCH   2   4
ATOM      4  N   UNL     1       0.475  32.329  15.471  1.00  0.00    -0.273 NA
ATOM      5  C   UNL     1      -0.042  31.743  14.224  1.00  0.00    -0.010 C 
BRANCH   4   6
ATOM      6  C   UNL     1      -0.203  32.188  16.768  1.00  0.00     0.054 C 
BRANCH   6   7
ATOM      7  C   UNL     1      -0.799  30.790  16.959  1.00  0.00     0.124 C 
ATOM      8  O   UNL     1      -2.008  30.583  16.880  1.00  0.00    -0.377 OA
BRANCH   7   9
ATOM      9  N   UNL     1       0.115  29.870  17.260  1.00  0.00    -0.249 NA
ATOM     10  C   UNL     1       0.960  29.884  18.463  1.00  0.00     0.116 C 
ATOM     11  C   UNL     1       0.960  29.884  18.463  1.00  0.00     0.116 C 
ATOM     12  C   UNL     1       0.336  29.019  19.561  1.00  0.00     0.001 C 
ATOM     13  C   UNL     1       2.312  29.304  18.042  1.00  0.00     0.173 C 
ATOM     14  C   UNL     1       2.312  29.304  18.042  1.00  0.00     0.173 C 
ATOM     15  N   UNL     1       3.317  30.173  17.987  1.00  0.00    -0.232 NA
ATOM     16  O   UNL     1       2.417  28.114  17.748  1.00  0.00    -0.330 OA
BRANCH  15  17
ATOM     17  C   UNL     1       4.682  29.802  17.581  1.00  0.00     0.066 C 
BRANCH  17  18
ATOM     18  C   UNL     1       5.321  30.930  16.763  1.00  0.00    -0.030 C 
BRANCH  18  19
ATOM     19  C   UNL     1       5.611  30.545  15.309  1.00  0.00    -0.039 C 
ATOM     20  C   UNL     1       5.720  31.520  14.323  1.00  0.00    -0.045 C 
ATOM     21  C   UNL     1       5.788  29.207  14.964  1.00  0.00    -0.048 C 
ATOM     22  C   UNL     1       6.009  31.187  13.003  1.00  0.00    -0.010 C
ATOM     23  C   UNL     1       6.072  28.862  13.646  1.00  0.00    -0.026 C 
ATOM     24  C   UNL     1       6.184  29.844  12.666  1.00  0.00     0.057 C 
ATOM     25  C   UNL     1       6.211  32.218  12.092  1.00  0.00     0.000 C
ATOM     26  O   UNL     1       6.476  29.486  11.388  1.00  0.00    -0.393 OA
ENDBRANCH  18  19
ENDBRANCH  17  18
BRANCH  17  27
ATOM     27  C   UNL     1       5.561  29.495  18.796  1.00  0.00     0.167 C 
ATOM     28  O   UNL     1       6.612  28.872  18.655  1.00  0.00    -0.367 OA
ATOM     29  O   UNL     1       5.226  29.866  19.920  1.00  0.00    -0.367 OA
ENDBRANCH  17  27
ENDBRANCH  15  17
ENDBRANCH   7   9
ENDBRANCH   6   7
BRANCH   6  30
ATOM     30  C   UNL     1      -1.329  33.222  16.866  1.00  0.00    -0.021 C 
ATOM     31  C   UNL     1      -1.058  34.486  17.383  1.00  0.00    -0.043 C 
ATOM     32  C   UNL     1      -2.624  32.913  16.461  1.00  0.00    -0.046 C 
ATOM     33  C   UNL     1      -2.052  35.452  17.499  1.00  0.00    -0.010 C
ATOM     34  C   UNL     1      -3.628  33.870  16.585  1.00  0.00    -0.026 C 
ATOM     35  C   UNL     1      -3.351  35.132  17.102  1.00  0.00     0.057 C 
ATOM     36  C   UNL     1      -1.691  36.714  17.958  1.00  0.00     0.000 C
ATOM     37  O   UNL     1      -4.353  36.046  17.211  1.00  0.00    -0.393 OA
ENDBRANCH   6  30
ENDBRANCH   4   6
ENDBRANCH   2   4
ENDBRANCH   1   2
BRANCH   1  38
ATOM     38  N   UNL     1       1.871  35.360  14.611  1.00  0.00    -0.287 NA
BRANCH  38  39
ATOM     39  C   UNL     1       0.822  36.174  14.565  1.00  0.00     0.120 C 
ATOM     40  O   UNL     1       0.582  37.025  15.421  1.00  0.00    -0.377 OA
BRANCH  39  41
ATOM     41  C   UNL     1      -0.107  36.008  13.362  1.00  0.00     0.046 C 
ATOM     42  C   UNL     1      -1.525  35.682  13.838  1.00  0.00    -0.046 C 
BRANCH  41  43
ATOM     43  N   UNL     1      -0.083  37.292  12.645  1.00  0.00    -0.284 NA
BRANCH  43  44
ATOM     44  C   UNL     1       0.976  37.717  11.960  1.00  0.00     0.123 C 
ATOM     45  O   UNL     1       1.341  37.243  10.884  1.00  0.00    -0.377 OA
BRANCH  44  46
ATOM     46  C   UNL     1       1.730  38.881  12.609  1.00  0.00     0.074 C 
BRANCH  46  47
ATOM     47  N   UNL     1       1.570  40.152  11.883  1.00  0.00    -0.273 NA
ATOM     48  C   UNL     1       1.231  40.250  10.453  1.00  0.00    -0.010 C 
BRANCH  47  49
ATOM     49  C   UNL     1       1.771  41.293  12.540  1.00  0.00     0.104 C 
ATOM     50  O   UNL     1       1.721  41.376  13.768  1.00  0.00    -0.379 OA
ATOM     51  C   UNL     1       2.088  42.540  11.706  1.00  0.00    -0.025 C 
ENDBRANCH  47  49
ENDBRANCH  46  47
BRANCH  46  52
ATOM     52  C   UNL     1       3.216  38.525  12.702  1.00  0.00     0.063 C 
ATOM     53  O   UNL     1       3.558  38.218  14.057  1.00  0.00    -0.395 OA
ENDBRANCH  46  52
ENDBRANCH  44  46
ENDBRANCH  43  44
ENDBRANCH  41  43
ENDBRANCH  39  41
ENDBRANCH  38  39
ENDBRANCH   1  38
TORSDOF 13
ENDMDL
MODEL 4
REMARK VINA RESULT:    -7.236      1.641      2.550
REMARK INTER + INTRA:         -19.641
REMARK INTER:                 -17.358
REMARK INTRA:                  -2.284
REMARK UNBOUND:                -4.367
REMARK SMILES CC(O)N(C)[C@H](CO)C(O)N[C@H](C)C(O)NCC(O)N(C)[C@H]1C2CCC(O)C(C2)[C@@H]2CC(CCC2O)C[C@@H](C(O)O)N2C34OC25[C@]32C[C@]45N2C1O
REMARK SMILES IDX 17 1 18 2 19 3 20 4 21 5 22 6 50 7 51 8 49 9 46 10 48 11
REMARK SMILES IDX 47 12 43 13 45 14 42 15 44 16 38 17 37 18 32 19 31 20 33 21
REMARK SMILES IDX 30 22 34 23 35 24 36 26 39 27 40 28 41 29 23 30 29 31 24 32
REMARK SMILES IDX 28 33 25 34 26 35 27 37 16 38 14 39 15 40 12 41 13 42 11 43
REMARK SMILES IDX 9 44 10 45 6 46 4 47 5 48 2 49 3 50 1 51 7 52 8 53
REMARK H PARENT
REMARK Flexibility Score: 80.00
ROOT
ATOM      1  C   UNL     1       0.947  33.046  13.582  1.00  0.00     0.037 C 
ENDROOT
BRANCH   1   2
ATOM      2  C   UNL     1      -0.464  32.489  13.370  1.00  0.00     0.120 C 
ATOM      3  O   UNL     1      -1.081  32.729  12.334  1.00  0.00    -0.377 OA
BRANCH   2   4
ATOM      4  N   UNL     1      -0.980  31.789  14.379  1.00  0.00    -0.273 NA
ATOM      5  C   UNL     1      -1.759  30.588  14.036  1.00  0.00    -0.010 C 
BRANCH   4   6
ATOM      6  C   UNL     1      -0.742  32.226  15.763  1.00  0.00     0.054 C 
BRANCH   6   7
ATOM      7  C   UNL     1      -0.871  31.073  16.763  1.00  0.00     0.124 C 
ATOM      8  O   UNL     1      -1.894  30.899  17.423  1.00  0.00    -0.377 OA
BRANCH   7   9
ATOM      9  N   UNL     1       0.236  30.343  16.862  1.00  0.00    -0.249 NA
ATOM     10  C   UNL     1       1.109  30.291  18.045  1.00  0.00     0.116 C 
ATOM     11  C   UNL     1       1.109  30.291  18.045  1.00  0.00     0.116 C 
ATOM     12  C   UNL     1       0.741  29.092  18.924  1.00  0.00     0.001 C 
ATOM     13  C   UNL     1       2.536  30.137  17.516  1.00  0.00     0.173 C 
ATOM     14  C   UNL     1       2.536  30.137  17.516  1.00  0.00     0.173 C 
ATOM     15  N   UNL     1       3.319  31.203  17.659  1.00  0.00    -0.232 NA
ATOM     16  O   UNL     1       2.891  29.093  16.971  1.00  0.00    -0.330 OA
BRANCH  15  17
ATOM     17  C   UNL     1       4.714  31.247  17.191  1.00  0.00     0.066 C 
BRANCH  17  18
ATOM     18  C   UNL     1       4.824  32.104  15.925  1.00  0.00    -0.030 C 
BRANCH  18  19
ATOM     19  C   UNL     1       5.374  31.343  14.714  1.00  0.00    -0.039 C 
ATOM     20  C   UNL     1       5.649  32.004  13.522  1.00  0.00    -0.045 C 
ATOM     21  C   UNL     1       5.624  29.974  14.806  1.00  0.00    -0.048 C 
ATOM     22  C   UNL     1       6.173  31.330  12.423  1.00  0.00    -0.010 C
ATOM     23  C   UNL     1       6.143  29.289  13.711  1.00  0.00    -0.026 C 
ATOM     24  C   UNL     1       6.418  29.960  12.522  1.00  0.00     0.057 C 
ATOM     25  C   UNL     1       6.524  32.072  11.301  1.00  0.00     0.000 C
ATOM     26  O   UNL     1       6.938  29.274  11.471  1.00  0.00    -0.393 OA
ENDBRANCH  18  19
ENDBRANCH  17  18
BRANCH  17  27
ATOM     27  C   UNL     1       5.645  31.808  18.268  1.00  0.00     0.167 C 
ATOM     28  O   UNL     1       6.477  31.077  18.804  1.00  0.00    -0.367 OA
ATOM     29  O   UNL     1       5.572  32.989  18.604  1.00  0.00    -0.367 OA
ENDBRANCH  17  27
ENDBRANCH  15  17
ENDBRANCH   7   9
ENDBRANCH   6   7
BRANCH   6  30
ATOM     30  C   UNL     1      -1.755  33.316  16.131  1.00  0.00    -0.021 C 
ATOM     31  C   UNL     1      -1.355  34.383  16.929  1.00  0.00    -0.043 C 
ATOM     32  C   UNL     1      -3.073  33.247  15.692  1.00  0.00    -0.046 C 
ATOM     33  C   UNL     1      -2.245  35.389  17.296  1.00  0.00    -0.010 C
ATOM     34  C   UNL     1      -3.973  34.243  16.064  1.00  0.00    -0.026 C 
ATOM     35  C   UNL     1      -3.568  35.308  16.862  1.00  0.00     0.057 C 
ATOM     36  C   UNL     1      -1.755  36.460  18.036  1.00  0.00     0.000 C
ATOM     37  O   UNL     1      -4.470  36.266  17.209  1.00  0.00    -0.393 OA
ENDBRANCH   6  30
ENDBRANCH   4   6
ENDBRANCH   2   4
ENDBRANCH   1   2
BRANCH   1  38
ATOM     38  N   UNL     1       1.024  34.495  13.339  1.00  0.00    -0.287 NA
BRANCH  38  39
ATOM     39  C   UNL     1       1.564  35.327  14.223  1.00  0.00     0.120 C 
ATOM     40  O   UNL     1       2.344  34.971  15.106  1.00  0.00    -0.377 OA
BRANCH  39  41
ATOM     41  C   UNL     1       1.166  36.798  14.093  1.00  0.00     0.046 C 
ATOM     42  C   UNL     1       0.356  37.231  15.318  1.00  0.00    -0.046 C 
BRANCH  41  43
ATOM     43  N   UNL     1       2.423  37.557  14.008  1.00  0.00    -0.284 NA
BRANCH  43  44
ATOM     44  C   UNL     1       2.586  38.595  13.190  1.00  0.00     0.123 C 
ATOM     45  O   UNL     1       3.665  38.925  12.698  1.00  0.00    -0.377 OA
BRANCH  44  46
ATOM     46  C   UNL     1       1.302  39.369  12.877  1.00  0.00     0.074 C 
BRANCH  46  47
ATOM     47  N   UNL     1       0.560  38.821  11.730  1.00  0.00    -0.273 NA
ATOM     48  C   UNL     1      -0.866  38.452  11.768  1.00  0.00    -0.010 C 
BRANCH  47  49
ATOM     49  C   UNL     1       1.212  38.611  10.587  1.00  0.00     0.104 C 
ATOM     50  O   UNL     1       2.017  37.692  10.436  1.00  0.00    -0.379 OA
ATOM     51  C   UNL     1       0.919  39.565   9.424  1.00  0.00    -0.025 C 
ENDBRANCH  47  49
ENDBRANCH  46  47
BRANCH  46  52
ATOM     52  C   UNL     1       1.655  40.834  12.610  1.00  0.00     0.063 C 
ATOM     53  O   UNL     1       1.844  41.522  13.850  1.00  0.00    -0.395 OA
ENDBRANCH  46  52
ENDBRANCH  44  46
ENDBRANCH  43  44
ENDBRANCH  41  43
ENDBRANCH  39  41
ENDBRANCH  38  39
ENDBRANCH   1  38
TORSDOF 13
ENDMDL
MODEL 5
REMARK VINA RESULT:    -7.069      2.112      3.546
REMARK INTER + INTRA:         -19.289
REMARK INTER:                 -16.053
REMARK INTRA:                  -3.236
REMARK UNBOUND:                -4.367
REMARK SMILES CC(O)N(C)[C@H](CO)C(O)N[C@H](C)C(O)NCC(O)N(C)[C@H]1C2CCC(O)C(C2)[C@@H]2CC(CCC2O)C[C@@H](C(O)O)N2C34OC25[C@]32C[C@]45N2C1O
REMARK SMILES IDX 17 1 18 2 19 3 20 4 21 5 22 6 50 7 51 8 49 9 46 10 48 11
REMARK SMILES IDX 47 12 43 13 45 14 42 15 44 16 38 17 37 18 32 19 31 20 33 21
REMARK SMILES IDX 30 22 34 23 35 24 36 26 39 27 40 28 41 29 23 30 29 31 24 32
REMARK SMILES IDX 28 33 25 34 26 35 27 37 16 38 14 39 15 40 12 41 13 42 11 43
REMARK SMILES IDX 9 44 10 45 6 46 4 47 5 48 2 49 3 50 1 51 7 52 8 53
REMARK H PARENT
REMARK Flexibility Score: 80.00
ROOT
ATOM      1  C   UNL     1       1.364  33.236  15.556  1.00  0.00     0.037 C 
ENDROOT
BRANCH   1   2
ATOM      2  C   UNL     1       1.234  32.069  14.573  1.00  0.00     0.120 C 
ATOM      3  O   UNL     1       1.992  31.977  13.609  1.00  0.00    -0.377 OA
BRANCH   2   4
ATOM      4  N   UNL     1       0.239  31.214  14.801  1.00  0.00    -0.273 NA
ATOM      5  C   UNL     1      -0.040  30.212  13.759  1.00  0.00    -0.010 C 
BRANCH   4   6
ATOM      6  C   UNL     1      -0.512  31.293  16.063  1.00  0.00     0.054 C 
BRANCH   6   7
ATOM      7  C   UNL     1      -0.540  29.953  16.803  1.00  0.00     0.124 C 
ATOM      8  O   UNL     1      -1.595  29.431  17.161  1.00  0.00    -0.377 OA
BRANCH   7   9
ATOM      9  N   UNL     1       0.674  29.466  17.048  1.00  0.00    -0.249 NA
ATOM     10  C   UNL     1       1.493  29.794  18.224  1.00  0.00     0.116 C 
ATOM     11  C   UNL     1       1.493  29.794  18.224  1.00  0.00     0.116 C 
ATOM     12  C   UNL     1       1.306  28.734  19.313  1.00  0.00     0.001 C 
ATOM     13  C   UNL     1       2.945  29.805  17.744  1.00  0.00     0.173 C 
ATOM     14  C   UNL     1       2.945  29.805  17.744  1.00  0.00     0.173 C 
ATOM     15  N   UNL     1       3.521  31.002  17.685  1.00  0.00    -0.232 NA
ATOM     16  O   UNL     1       3.500  28.759  17.410  1.00  0.00    -0.330 OA
BRANCH  15  17
ATOM     17  C   UNL     1       4.904  31.209  17.226  1.00  0.00     0.066 C 
BRANCH  17  18
ATOM     18  C   UNL     1       4.923  32.076  15.963  1.00  0.00    -0.030 C 
BRANCH  18  19
ATOM     19  C   UNL     1       5.437  31.341  14.721  1.00  0.00    -0.039 C 
ATOM     20  C   UNL     1       5.686  32.029  13.539  1.00  0.00    -0.045 C 
ATOM     21  C   UNL     1       5.681  29.970  14.774  1.00  0.00    -0.048 C 
ATOM     22  C   UNL     1       6.177  31.378  12.411  1.00  0.00    -0.010 C
ATOM     23  C   UNL     1       6.168  29.308  13.651  1.00  0.00    -0.026 C 
ATOM     24  C   UNL     1       6.417  30.005  12.471  1.00  0.00     0.057 C 
ATOM     25  C   UNL     1       6.504  32.145  11.298  1.00  0.00     0.000 C
ATOM     26  O   UNL     1       6.906  29.342  11.391  1.00  0.00    -0.393 OA
ENDBRANCH  18  19
ENDBRANCH  17  18
BRANCH  17  27
ATOM     27  C   UNL     1       5.758  31.871  18.311  1.00  0.00     0.167 C 
ATOM     28  O   UNL     1       6.543  31.197  18.974  1.00  0.00    -0.367 OA
ATOM     29  O   UNL     1       5.667  33.079  18.527  1.00  0.00    -0.367 OA
ENDBRANCH  17  27
ENDBRANCH  15  17
ENDBRANCH   7   9
ENDBRANCH   6   7
BRANCH   6  30
ATOM     30  C   UNL     1      -1.952  31.726  15.769  1.00  0.00    -0.021 C 
ATOM     31  C   UNL     1      -2.511  32.783  16.482  1.00  0.00    -0.043 C 
ATOM     32  C   UNL     1      -2.716  31.069  14.810  1.00  0.00    -0.046 C 
ATOM     33  C   UNL     1      -3.818  33.202  16.254  1.00  0.00    -0.010 C
ATOM     34  C   UNL     1      -4.029  31.474  14.583  1.00  0.00    -0.026 C 
ATOM     35  C   UNL     1      -4.583  32.532  15.299  1.00  0.00     0.057 C 
ATOM     36  C   UNL     1      -4.283  34.310  16.954  1.00  0.00     0.000 C
ATOM     37  O   UNL     1      -5.869  32.904  15.056  1.00  0.00    -0.393 OA
ENDBRANCH   6  30
ENDBRANCH   4   6
ENDBRANCH   2   4
ENDBRANCH   1   2
BRANCH   1  38
ATOM     38  N   UNL     1       2.034  34.403  14.962  1.00  0.00    -0.287 NA
BRANCH  38  39
ATOM     39  C   UNL     1       1.486  35.613  14.981  1.00  0.00     0.120 C 
ATOM     40  O   UNL     1       2.131  36.650  15.138  1.00  0.00    -0.377 OA
BRANCH  39  41
ATOM     41  C   UNL     1      -0.030  35.669  14.792  1.00  0.00     0.046 C 
ATOM     42  C   UNL     1      -0.719  35.863  16.145  1.00  0.00    -0.046 C 
BRANCH  41  43
ATOM     43  N   UNL     1      -0.291  36.815  13.908  1.00  0.00    -0.284 NA
BRANCH  43  44
ATOM     44  C   UNL     1      -0.384  36.701  12.585  1.00  0.00     0.123 C 
ATOM     45  O   UNL     1      -1.283  36.094  12.004  1.00  0.00    -0.377 OA
BRANCH  44  46
ATOM     46  C   UNL     1       0.729  37.408  11.805  1.00  0.00     0.074 C 
BRANCH  46  47
ATOM     47  N   UNL     1       0.839  38.842  12.123  1.00  0.00    -0.273 NA
ATOM     48  C   UNL     1      -0.100  39.870  11.642  1.00  0.00    -0.010 C 
BRANCH  47  49
ATOM     49  C   UNL     1       1.864  39.255  12.866  1.00  0.00     0.104 C 
ATOM     50  O   UNL     1       1.749  40.105  13.750  1.00  0.00    -0.379 OA
ATOM     51  C   UNL     1       3.232  38.619  12.595  1.00  0.00    -0.025 C 
ENDBRANCH  47  49
ENDBRANCH  46  47
BRANCH  46  52
ATOM     52  C   UNL     1       0.477  37.231  10.305  1.00  0.00     0.063 C 
ATOM     53  O   UNL     1       1.715  37.309   9.592  1.00  0.00    -0.395 OA
ENDBRANCH  46  52
ENDBRANCH  44  46
ENDBRANCH  43  44
ENDBRANCH  41  43
ENDBRANCH  39  41
ENDBRANCH  38  39
ENDBRANCH   1  38
TORSDOF 13
ENDMDL
MODEL 6
REMARK VINA RESULT:    -7.045      1.910      3.269
REMARK INTER + INTRA:         -19.237
REMARK INTER:                 -16.162
REMARK INTRA:                  -3.075
REMARK UNBOUND:                -4.367
REMARK SMILES CC(O)N(C)[C@H](CO)C(O)N[C@H](C)C(O)NCC(O)N(C)[C@H]1C2CCC(O)C(C2)[C@@H]2CC(CCC2O)C[C@@H](C(O)O)N2C34OC25[C@]32C[C@]45N2C1O
REMARK SMILES IDX 17 1 18 2 19 3 20 4 21 5 22 6 50 7 51 8 49 9 46 10 48 11
REMARK SMILES IDX 47 12 43 13 45 14 42 15 44 16 38 17 37 18 32 19 31 20 33 21
REMARK SMILES IDX 30 22 34 23 35 24 36 26 39 27 40 28 41 29 23 30 29 31 24 32
REMARK SMILES IDX 28 33 25 34 26 35 27 37 16 38 14 39 15 40 12 41 13 42 11 43
REMARK SMILES IDX 9 44 10 45 6 46 4 47 5 48 2 49 3 50 1 51 7 52 8 53
REMARK H PARENT
REMARK Flexibility Score: 80.00
ROOT
ATOM      1  C   UNL     1       1.692  35.556  13.817  1.00  0.00     0.037 C 
ENDROOT
BRANCH   1   2
ATOM      2  C   UNL     1       1.767  34.383  14.800  1.00  0.00     0.120 C 
ATOM      3  O   UNL     1       2.811  34.138  15.400  1.00  0.00    -0.377 OA
BRANCH   2   4
ATOM      4  N   UNL     1       0.669  33.639  14.916  1.00  0.00    -0.273 NA
ATOM      5  C   UNL     1       0.180  32.966  13.702  1.00  0.00    -0.010 C 
BRANCH   4   6
ATOM      6  C   UNL     1       0.013  33.511  16.227  1.00  0.00     0.054 C 
BRANCH   6   7
ATOM      7  C   UNL     1      -0.623  32.132  16.421  1.00  0.00     0.124 C 
ATOM      8  O   UNL     1      -1.841  31.987  16.518  1.00  0.00    -0.377 OA
BRANCH   7   9
ATOM      9  N   UNL     1       0.272  31.153  16.522  1.00  0.00    -0.249 NA
ATOM     10  C   UNL     1       1.027  30.822  17.739  1.00  0.00     0.116 C 
ATOM     11  C   UNL     1       1.027  30.822  17.739  1.00  0.00     0.116 C 
ATOM     12  C   UNL     1       0.330  29.695  18.507  1.00  0.00     0.001 C 
ATOM     13  C   UNL     1       2.411  30.364  17.273  1.00  0.00     0.173 C 
ATOM     14  C   UNL     1       2.411  30.364  17.273  1.00  0.00     0.173 C 
ATOM     15  N   UNL     1       3.410  31.201  17.534  1.00  0.00    -0.232 NA
ATOM     16  O   UNL     1       2.545  29.300  16.670  1.00  0.00    -0.330 OA
BRANCH  15  17
ATOM     17  C   UNL     1       4.804  30.939  17.141  1.00  0.00     0.066 C 
BRANCH  17  18
ATOM     18  C   UNL     1       5.242  31.915  16.044  1.00  0.00    -0.030 C 
BRANCH  18  19
ATOM     19  C   UNL     1       5.609  31.231  14.724  1.00  0.00    -0.039 C 
ATOM     20  C   UNL     1       5.796  31.976  13.564  1.00  0.00    -0.045 C 
ATOM     21  C   UNL     1       5.778  29.848  14.678  1.00  0.00    -0.048 C 
ATOM     22  C   UNL     1       6.154  31.370  12.363  1.00  0.00    -0.010 C
ATOM     23  C   UNL     1       6.132  29.232  13.482  1.00  0.00    -0.026 C 
ATOM     24  C   UNL     1       6.320  29.985  12.326  1.00  0.00     0.057 C 
ATOM     25  C   UNL     1       6.429  32.186  11.271  1.00  0.00     0.000 C
ATOM     26  O   UNL     1       6.679  29.364  11.172  1.00  0.00    -0.393 OA
ENDBRANCH  18  19
ENDBRANCH  17  18
BRANCH  17  27
ATOM     27  C   UNL     1       5.752  31.058  18.337  1.00  0.00     0.167 C 
ATOM     28  O   UNL     1       6.200  30.045  18.872  1.00  0.00    -0.367 OA
ATOM     29  O   UNL     1       6.074  32.163  18.772  1.00  0.00    -0.367 OA
ENDBRANCH  17  27
ENDBRANCH  15  17
ENDBRANCH   7   9
ENDBRANCH   6   7
BRANCH   6  30
ATOM     30  C   UNL     1      -1.075  34.581  16.355  1.00  0.00    -0.021 C 
ATOM     31  C   UNL     1      -1.834  34.927  15.241  1.00  0.00    -0.043 C 
ATOM     32  C   UNL     1      -1.307  35.226  17.566  1.00  0.00    -0.046 C 
ATOM     33  C   UNL     1      -2.825  35.901  15.311  1.00  0.00    -0.010 C
ATOM     34  C   UNL     1      -2.289  36.210  17.643  1.00  0.00    -0.026 C 
ATOM     35  C   UNL     1      -3.045  36.552  16.525  1.00  0.00     0.057 C 
ATOM     36  C   UNL     1      -3.589  36.143  14.174  1.00  0.00     0.000 C
ATOM     37  O   UNL     1      -3.997  37.518  16.630  1.00  0.00    -0.393 OA
ENDBRANCH   6  30
ENDBRANCH   4   6
ENDBRANCH   2   4
ENDBRANCH   1   2
BRANCH   1  38
ATOM     38  N   UNL     1       1.978  36.848  14.458  1.00  0.00    -0.287 NA
BRANCH  38  39
ATOM     39  C   UNL     1       2.528  37.857  13.791  1.00  0.00     0.120 C 
ATOM     40  O   UNL     1       3.645  38.309  14.040  1.00  0.00    -0.377 OA
BRANCH  39  41
ATOM     41  C   UNL     1       1.690  38.453  12.660  1.00  0.00     0.046 C 
ATOM     42  C   UNL     1       1.640  39.977  12.794  1.00  0.00    -0.046 C 
BRANCH  41  43
ATOM     43  N   UNL     1       2.354  38.064  11.407  1.00  0.00    -0.284 NA
BRANCH  43  44
ATOM     44  C   UNL     1       1.687  37.635  10.338  1.00  0.00     0.123 C 
ATOM     45  O   UNL     1       1.262  38.370   9.447  1.00  0.00    -0.377 OA
BRANCH  44  46
ATOM     46  C   UNL     1       1.486  36.118  10.278  1.00  0.00     0.074 C 
BRANCH  46  47
ATOM     47  N   UNL     1       2.230  35.477   9.181  1.00  0.00    -0.273 NA
ATOM     48  C   UNL     1       2.003  35.760   7.753  1.00  0.00    -0.010 C 
BRANCH  47  49
ATOM     49  C   UNL     1       3.147  34.559   9.480  1.00  0.00     0.104 C 
ATOM     50  O   UNL     1       2.866  33.477   9.997  1.00  0.00    -0.379 OA
ATOM     51  C   UNL     1       4.606  34.886   9.146  1.00  0.00    -0.025 C 
ENDBRANCH  47  49
ENDBRANCH  46  47
BRANCH  46  52
ATOM     52  C   UNL     1      -0.008  35.817  10.132  1.00  0.00     0.063 C 
ATOM     53  O   UNL     1      -0.638  35.847  11.416  1.00  0.00    -0.395 OA
ENDBRANCH  46  52
ENDBRANCH  44  46
ENDBRANCH  43  44
ENDBRANCH  41  43
ENDBRANCH  39  41
ENDBRANCH  38  39
ENDBRANCH   1  38
TORSDOF 13
ENDMDL
MODEL 7
REMARK VINA RESULT:    -6.974      2.097      3.515
REMARK INTER + INTRA:         -19.088
REMARK INTER:                 -15.120
REMARK INTRA:                  -3.968
REMARK UNBOUND:                -4.367
REMARK SMILES CC(O)N(C)[C@H](CO)C(O)N[C@H](C)C(O)NCC(O)N(C)[C@H]1C2CCC(O)C(C2)[C@@H]2CC(CCC2O)C[C@@H](C(O)O)N2C34OC25[C@]32C[C@]45N2C1O
REMARK SMILES IDX 17 1 18 2 19 3 20 4 21 5 22 6 50 7 51 8 49 9 46 10 48 11
REMARK SMILES IDX 47 12 43 13 45 14 42 15 44 16 38 17 37 18 32 19 31 20 33 21
REMARK SMILES IDX 30 22 34 23 35 24 36 26 39 27 40 28 41 29 23 30 29 31 24 32
REMARK SMILES IDX 28 33 25 34 26 35 27 37 16 38 14 39 15 40 12 41 13 42 11 43
REMARK SMILES IDX 9 44 10 45 6 46 4 47 5 48 2 49 3 50 1 51 7 52 8 53
REMARK H PARENT
REMARK Flexibility Score: 80.00
ROOT
ATOM      1  C   UNL     1       0.549  31.291  12.996  1.00  0.00     0.037 C 
ENDROOT
BRANCH   1   2
ATOM      2  C   UNL     1      -0.882  30.794  13.218  1.00  0.00     0.120 C 
ATOM      3  O   UNL     1      -1.732  30.923  12.340  1.00  0.00    -0.377 OA
BRANCH   2   4
ATOM      4  N   UNL     1      -1.147  30.271  14.415  1.00  0.00    -0.273 NA
ATOM      5  C   UNL     1      -1.863  28.986  14.445  1.00  0.00    -0.010 C 
BRANCH   4   6
ATOM      6  C   UNL     1      -0.708  30.977  15.629  1.00  0.00     0.054 C 
BRANCH   6   7
ATOM      7  C   UNL     1      -0.641  30.049  16.844  1.00  0.00     0.124 C 
ATOM      8  O   UNL     1      -1.612  29.869  17.577  1.00  0.00    -0.377 OA
BRANCH   7   9
ATOM      9  N   UNL     1       0.566  29.521  17.031  1.00  0.00    -0.249 NA
ATOM     10  C   UNL     1       1.412  29.749  18.211  1.00  0.00     0.116 C 
ATOM     11  C   UNL     1       1.412  29.749  18.211  1.00  0.00     0.116 C 
ATOM     12  C   UNL     1       1.222  28.621  19.229  1.00  0.00     0.001 C 
ATOM     13  C   UNL     1       2.856  29.762  17.705  1.00  0.00     0.173 C 
ATOM     14  C   UNL     1       2.856  29.762  17.705  1.00  0.00     0.173 C 
ATOM     15  N   UNL     1       3.458  30.948  17.718  1.00  0.00    -0.232 NA
ATOM     16  O   UNL     1       3.381  28.730  17.290  1.00  0.00    -0.330 OA
BRANCH  15  17
ATOM     17  C   UNL     1       4.837  31.157  17.248  1.00  0.00     0.066 C 
BRANCH  17  18
ATOM     18  C   UNL     1       4.845  32.036  15.992  1.00  0.00    -0.030 C 
BRANCH  18  19
ATOM     19  C   UNL     1       5.377  31.321  14.746  1.00  0.00    -0.039 C 
ATOM     20  C   UNL     1       5.636  32.028  13.577  1.00  0.00    -0.045 C 
ATOM     21  C   UNL     1       5.625  29.950  14.781  1.00  0.00    -0.048 C 
ATOM     22  C   UNL     1       6.143  31.396  12.445  1.00  0.00    -0.010 C
ATOM     23  C   UNL     1       6.128  29.308  13.654  1.00  0.00    -0.026 C 
ATOM     24  C   UNL     1       6.388  30.023  12.488  1.00  0.00     0.057 C 
ATOM     25  C   UNL     1       6.481  32.181  11.348  1.00  0.00     0.000 C
ATOM     26  O   UNL     1       6.892  29.378  11.404  1.00  0.00    -0.393 OA
ENDBRANCH  18  19
ENDBRANCH  17  18
BRANCH  17  27
ATOM     27  C   UNL     1       5.702  31.807  18.330  1.00  0.00     0.167 C 
ATOM     28  O   UNL     1       5.583  33.007  18.576  1.00  0.00    -0.367 OA
ATOM     29  O   UNL     1       6.519  31.140  18.963  1.00  0.00    -0.367 OA
ENDBRANCH  17  27
ENDBRANCH  15  17
ENDBRANCH   7   9
ENDBRANCH   6   7
BRANCH   6  30
ATOM     30  C   UNL     1      -1.684  32.119  15.931  1.00  0.00    -0.021 C 
ATOM     31  C   UNL     1      -1.209  33.298  16.498  1.00  0.00    -0.043 C 
ATOM     32  C   UNL     1      -3.043  31.989  15.663  1.00  0.00    -0.046 C 
ATOM     33  C   UNL     1      -2.062  34.355  16.798  1.00  0.00    -0.010 C
ATOM     34  C   UNL     1      -3.907  33.038  15.971  1.00  0.00    -0.026 C 
ATOM     35  C   UNL     1      -3.425  34.215  16.537  1.00  0.00     0.057 C 
ATOM     36  C   UNL     1      -1.503  35.527  17.297  1.00  0.00     0.000 C
ATOM     37  O   UNL     1      -4.293  35.222  16.828  1.00  0.00    -0.393 OA
ENDBRANCH   6  30
ENDBRANCH   4   6
ENDBRANCH   2   4
ENDBRANCH   1   2
BRANCH   1  38
ATOM     38  N   UNL     1       0.594  32.635  12.400  1.00  0.00    -0.287 NA
BRANCH  38  39
ATOM     39  C   UNL     1       0.624  33.734  13.146  1.00  0.00     0.120 C 
ATOM     40  O   UNL     1       1.376  33.883  14.108  1.00  0.00    -0.377 OA
BRANCH  39  41
ATOM     41  C   UNL     1      -0.346  34.846  12.746  1.00  0.00     0.046 C 
ATOM     42  C   UNL     1      -1.789  34.382  12.957  1.00  0.00    -0.046 C 
BRANCH  41  43
ATOM     43  N   UNL     1      -0.037  35.992  13.614  1.00  0.00    -0.284 NA
BRANCH  43  44
ATOM     44  C   UNL     1      -0.182  37.256  13.221  1.00  0.00     0.123 C 
ATOM     45  O   UNL     1      -1.260  37.770  12.928  1.00  0.00    -0.377 OA
BRANCH  44  46
ATOM     46  C   UNL     1       1.121  38.060  13.169  1.00  0.00     0.074 C 
BRANCH  46  47
ATOM     47  N   UNL     1       1.738  38.078  11.832  1.00  0.00    -0.273 NA
ATOM     48  C   UNL     1       2.421  36.925  11.222  1.00  0.00    -0.010 C 
BRANCH  47  49
ATOM     49  C   UNL     1       1.711  39.210  11.131  1.00  0.00     0.104 C 
ATOM     50  O   UNL     1       1.413  39.249   9.936  1.00  0.00    -0.379 OA
ATOM     51  C   UNL     1       2.060  40.506  11.870  1.00  0.00    -0.025 C 
ENDBRANCH  47  49
ENDBRANCH  46  47
BRANCH  46  52
ATOM     52  C   UNL     1       2.108  37.479  14.184  1.00  0.00     0.063 C 
ATOM     53  O   UNL     1       3.345  38.193  14.123  1.00  0.00    -0.395 OA
ENDBRANCH  46  52
ENDBRANCH  44  46
ENDBRANCH  43  44
ENDBRANCH  41  43
ENDBRANCH  39  41
ENDBRANCH  38  39
ENDBRANCH   1  38
TORSDOF 13
ENDMDL
MODEL 8
REMARK VINA RESULT:    -6.971      3.196     10.162
REMARK INTER + INTRA:         -19.082
REMARK INTER:                 -15.194
REMARK INTRA:                  -3.888
REMARK UNBOUND:                -4.367
REMARK SMILES CC(O)N(C)[C@H](CO)C(O)N[C@H](C)C(O)NCC(O)N(C)[C@H]1C2CCC(O)C(C2)[C@@H]2CC(CCC2O)C[C@@H](C(O)O)N2C34OC25[C@]32C[C@]45N2C1O
REMARK SMILES IDX 17 1 18 2 19 3 20 4 21 5 22 6 50 7 51 8 49 9 46 10 48 11
REMARK SMILES IDX 47 12 43 13 45 14 42 15 44 16 38 17 37 18 32 19 31 20 33 21
REMARK SMILES IDX 30 22 34 23 35 24 36 26 39 27 40 28 41 29 23 30 29 31 24 32
REMARK SMILES IDX 28 33 25 34 26 35 27 37 16 38 14 39 15 40 12 41 13 42 11 43
REMARK SMILES IDX 9 44 10 45 6 46 4 47 5 48 2 49 3 50 1 51 7 52 8 53
REMARK H PARENT
REMARK Flexibility Score: 80.00
ROOT
ATOM      1  C   UNL     1      -0.144  28.733  18.173  1.00  0.00     0.037 C 
ENDROOT
BRANCH   1   2
ATOM      2  C   UNL     1      -1.099  29.925  18.051  1.00  0.00     0.120 C 
ATOM      3  O   UNL     1      -1.752  30.303  19.022  1.00  0.00    -0.377 OA
BRANCH   2   4
ATOM      4  N   UNL     1      -1.205  30.475  16.843  1.00  0.00    -0.273 NA
ATOM      5  C   UNL     1      -1.313  29.561  15.695  1.00  0.00    -0.010 C 
BRANCH   4   6
ATOM      6  C   UNL     1      -1.226  31.940  16.711  1.00  0.00     0.054 C 
BRANCH   6   7
ATOM      7  C   UNL     1      -2.651  32.489  16.597  1.00  0.00     0.124 C 
ATOM      8  O   UNL     1      -3.624  31.747  16.478  1.00  0.00    -0.377 OA
BRANCH   7   9
ATOM      9  N   UNL     1      -2.698  33.819  16.592  1.00  0.00    -0.249 NA
ATOM     10  C   UNL     1      -3.825  34.620  16.093  1.00  0.00     0.116 C 
ATOM     11  C   UNL     1      -3.825  34.620  16.093  1.00  0.00     0.116 C 
ATOM     12  C   UNL     1      -4.753  35.009  17.247  1.00  0.00     0.001 C 
ATOM     13  C   UNL     1      -3.212  35.874  15.465  1.00  0.00     0.173 C 
ATOM     14  C   UNL     1      -3.212  35.874  15.465  1.00  0.00     0.173 C 
ATOM     15  N   UNL     1      -3.281  35.944  14.139  1.00  0.00    -0.232 NA
ATOM     16  O   UNL     1      -2.671  36.724  16.171  1.00  0.00    -0.330 OA
BRANCH  15  17
ATOM     17  C   UNL     1      -2.726  37.063  13.361  1.00  0.00     0.066 C 
BRANCH  17  18
ATOM     18  C   UNL     1      -1.566  36.580  12.484  1.00  0.00    -0.030 C 
BRANCH  18  19
ATOM     19  C   UNL     1      -0.187  37.004  13.000  1.00  0.00    -0.039 C 
ATOM     20  C   UNL     1       0.540  37.997  12.353  1.00  0.00    -0.045 C 
ATOM     21  C   UNL     1       0.344  36.408  14.142  1.00  0.00    -0.048 C 
ATOM     22  C   UNL     1       1.782  38.410  12.825  1.00  0.00    -0.010 C
ATOM     23  C   UNL     1       1.587  36.810  14.621  1.00  0.00    -0.026 C 
ATOM     24  C   UNL     1       2.307  37.807  13.969  1.00  0.00     0.057 C 
ATOM     25  C   UNL     1       2.404  39.482  12.193  1.00  0.00     0.000 C
ATOM     26  O   UNL     1       3.513  38.195  14.461  1.00  0.00    -0.393 OA
ENDBRANCH  18  19
ENDBRANCH  17  18
BRANCH  17  27
ATOM     27  C   UNL     1      -3.795  37.713  12.479  1.00  0.00     0.167 C 
ATOM     28  O   UNL     1      -4.942  37.269  12.475  1.00  0.00    -0.367 OA
ATOM     29  O   UNL     1      -3.519  38.680  11.772  1.00  0.00    -0.367 OA
ENDBRANCH  17  27
ENDBRANCH  15  17
ENDBRANCH   7   9
ENDBRANCH   6   7
BRANCH   6  30
ATOM     30  C   UNL     1      -0.437  32.347  15.462  1.00  0.00    -0.021 C 
ATOM     31  C   UNL     1       0.944  32.495  15.540  1.00  0.00    -0.043 C 
ATOM     32  C   UNL     1      -1.083  32.586  14.253  1.00  0.00    -0.046 C 
ATOM     33  C   UNL     1       1.698  32.873  14.433  1.00  0.00    -0.010 C
ATOM     34  C   UNL     1      -0.339  32.977  13.143  1.00  0.00    -0.026 C 
ATOM     35  C   UNL     1       1.043  33.123  13.227  1.00  0.00     0.057 C 
ATOM     36  C   UNL     1       3.081  32.931  14.569  1.00  0.00     0.000 C
ATOM     37  O   UNL     1       1.744  33.506  12.125  1.00  0.00    -0.393 OA
ENDBRANCH   6  30
ENDBRANCH   4   6
ENDBRANCH   2   4
ENDBRANCH   1   2
BRANCH   1  38
ATOM     38  N   UNL     1       1.138  29.098  18.795  1.00  0.00    -0.287 NA
BRANCH  38  39
ATOM     39  C   UNL     1       1.410  28.812  20.063  1.00  0.00     0.120 C 
ATOM     40  O   UNL     1       0.716  29.184  21.009  1.00  0.00    -0.377 OA
BRANCH  39  41
ATOM     41  C   UNL     1       2.663  27.972  20.310  1.00  0.00     0.046 C 
ATOM     42  C   UNL     1       2.349  26.489  20.097  1.00  0.00    -0.046 C 
BRANCH  41  43
ATOM     43  N   UNL     1       3.666  28.434  19.338  1.00  0.00    -0.284 NA
BRANCH  43  44
ATOM     44  C   UNL     1       4.763  29.100  19.693  1.00  0.00     0.123 C 
ATOM     45  O   UNL     1       4.982  29.518  20.830  1.00  0.00    -0.377 OA
BRANCH  44  46
ATOM     46  C   UNL     1       5.776  29.309  18.563  1.00  0.00     0.074 C 
BRANCH  46  47
ATOM     47  N   UNL     1       5.371  30.354  17.608  1.00  0.00    -0.273 NA
ATOM     48  C   UNL     1       5.001  30.093  16.206  1.00  0.00    -0.010 C 
BRANCH  47  49
ATOM     49  C   UNL     1       5.364  31.622  18.013  1.00  0.00     0.104 C 
ATOM     50  O   UNL     1       4.458  32.408  17.732  1.00  0.00    -0.379 OA
ATOM     51  C   UNL     1       6.541  32.094  18.873  1.00  0.00    -0.025 C 
ENDBRANCH  47  49
ENDBRANCH  46  47
BRANCH  46  52
ATOM     52  C   UNL     1       5.978  27.984  17.823  1.00  0.00     0.063 C 
ATOM     53  O   UNL     1       7.367  27.645  17.803  1.00  0.00    -0.395 OA
ENDBRANCH  46  52
ENDBRANCH  44  46
ENDBRANCH  43  44
ENDBRANCH  41  43
ENDBRANCH  39  41
ENDBRANCH  38  39
ENDBRANCH   1  38
TORSDOF 13
ENDMDL
MODEL 9
REMARK VINA RESULT:    -6.927      1.459      2.830
REMARK INTER + INTRA:         -18.989
REMARK INTER:                 -15.697
REMARK INTRA:                  -3.292
REMARK UNBOUND:                -4.367
REMARK SMILES CC(O)N(C)[C@H](CO)C(O)N[C@H](C)C(O)NCC(O)N(C)[C@H]1C2CCC(O)C(C2)[C@@H]2CC(CCC2O)C[C@@H](C(O)O)N2C34OC25[C@]32C[C@]45N2C1O
REMARK SMILES IDX 17 1 18 2 19 3 20 4 21 5 22 6 50 7 51 8 49 9 46 10 48 11
REMARK SMILES IDX 47 12 43 13 45 14 42 15 44 16 38 17 37 18 32 19 31 20 33 21
REMARK SMILES IDX 30 22 34 23 35 24 36 26 39 27 40 28 41 29 23 30 29 31 24 32
REMARK SMILES IDX 28 33 25 34 26 35 27 37 16 38 14 39 15 40 12 41 13 42 11 43
REMARK SMILES IDX 9 44 10 45 6 46 4 47 5 48 2 49 3 50 1 51 7 52 8 53
REMARK H PARENT
REMARK Flexibility Score: 80.00
ROOT
ATOM      1  C   UNL     1       1.176  32.511  13.102  1.00  0.00     0.037 C 
ENDROOT
BRANCH   1   2
ATOM      2  C   UNL     1      -0.340  32.726  13.099  1.00  0.00     0.120 C 
ATOM      3  O   UNL     1      -0.876  33.387  12.211  1.00  0.00    -0.377 OA
BRANCH   2   4
ATOM      4  N   UNL     1      -1.013  32.203  14.123  1.00  0.00    -0.273 NA
ATOM      5  C   UNL     1      -2.145  31.319  13.803  1.00  0.00    -0.010 C 
BRANCH   4   6
ATOM      6  C   UNL     1      -0.595  32.510  15.499  1.00  0.00     0.054 C 
BRANCH   6   7
ATOM      7  C   UNL     1      -0.903  31.364  16.466  1.00  0.00     0.124 C 
ATOM      8  O   UNL     1      -2.006  31.240  16.995  1.00  0.00    -0.377 OA
BRANCH   7   9
ATOM      9  N   UNL     1       0.146  30.577  16.694  1.00  0.00    -0.249 NA
ATOM     10  C   UNL     1       0.995  30.630  17.893  1.00  0.00     0.116 C 
ATOM     11  C   UNL     1       0.995  30.630  17.893  1.00  0.00     0.116 C 
ATOM     12  C   UNL     1       0.527  29.598  18.922  1.00  0.00     0.001 C 
ATOM     13  C   UNL     1       2.415  30.301  17.425  1.00  0.00     0.173 C 
ATOM     14  C   UNL     1       2.415  30.301  17.425  1.00  0.00     0.173 C 
ATOM     15  N   UNL     1       3.272  31.317  17.436  1.00  0.00    -0.232 NA
ATOM     16  O   UNL     1       2.698  29.168  17.041  1.00  0.00    -0.330 OA
BRANCH  15  17
ATOM     17  C   UNL     1       4.673  31.195  17.000  1.00  0.00     0.066 C 
BRANCH  17  18
ATOM     18  C   UNL     1       4.937  32.102  15.794  1.00  0.00    -0.030 C 
BRANCH  18  19
ATOM     19  C   UNL     1       5.162  31.336  14.487  1.00  0.00    -0.039 C 
ATOM     20  C   UNL     1       4.538  30.113  14.262  1.00  0.00    -0.045 C 
ATOM     21  C   UNL     1       5.984  31.872  13.497  1.00  0.00    -0.048 C 
ATOM     22  C   UNL     1       4.714  29.418  13.069  1.00  0.00    -0.010 C
ATOM     23  C   UNL     1       6.169  31.183  12.302  1.00  0.00    -0.026 C 
ATOM     24  C   UNL     1       5.539  29.961  12.084  1.00  0.00     0.057 C 
ATOM     25  C   UNL     1       3.975  28.257  12.869  1.00  0.00     0.000 C
ATOM     26  O   UNL     1       5.723  29.313  10.904  1.00  0.00    -0.393 OA
ENDBRANCH  18  19
ENDBRANCH  17  18
BRANCH  17  27
ATOM     27  C   UNL     1       5.641  31.554  18.130  1.00  0.00     0.167 C 
ATOM     28  O   UNL     1       5.738  32.719  18.511  1.00  0.00    -0.367 OA
ATOM     29  O   UNL     1       6.326  30.684  18.666  1.00  0.00    -0.367 OA
ENDBRANCH  17  27
ENDBRANCH  15  17
ENDBRANCH   7   9
ENDBRANCH   6   7
BRANCH   6  30
ATOM     30  C   UNL     1      -1.321  33.771  15.979  1.00  0.00    -0.021 C 
ATOM     31  C   UNL     1      -2.473  34.192  15.322  1.00  0.00    -0.043 C 
ATOM     32  C   UNL     1      -0.837  34.512  17.052  1.00  0.00    -0.046 C 
ATOM     33  C   UNL     1      -3.158  35.337  15.718  1.00  0.00    -0.010 C
ATOM     34  C   UNL     1      -1.509  35.666  17.448  1.00  0.00    -0.026 C 
ATOM     35  C   UNL     1      -2.662  36.082  16.788  1.00  0.00     0.057 C 
ATOM     36  C   UNL     1      -4.341  35.655  15.058  1.00  0.00     0.000 C
ATOM     37  O   UNL     1      -3.296  37.214  17.197  1.00  0.00    -0.393 OA
ENDBRANCH   6  30
ENDBRANCH   4   6
ENDBRANCH   2   4
ENDBRANCH   1   2
BRANCH   1  38
ATOM     38  N   UNL     1       1.926  33.775  13.045  1.00  0.00    -0.287 NA
BRANCH  38  39
ATOM     39  C   UNL     1       1.909  34.646  14.048  1.00  0.00     0.120 C 
ATOM     40  O   UNL     1       2.230  34.363  15.202  1.00  0.00    -0.377 OA
BRANCH  39  41
ATOM     41  C   UNL     1       1.464  36.067  13.699  1.00  0.00     0.046 C 
ATOM     42  C   UNL     1       1.344  36.905  14.974  1.00  0.00    -0.046 C 
BRANCH  41  43
ATOM     43  N   UNL     1       2.501  36.616  12.813  1.00  0.00    -0.284 NA
BRANCH  43  44
ATOM     44  C   UNL     1       2.792  37.914  12.759  1.00  0.00     0.123 C 
ATOM     45  O   UNL     1       3.546  38.487  13.544  1.00  0.00    -0.377 OA
BRANCH  44  46
ATOM     46  C   UNL     1       2.118  38.672  11.611  1.00  0.00     0.074 C 
BRANCH  46  47
ATOM     47  N   UNL     1       1.134  39.665  12.071  1.00  0.00    -0.273 NA
ATOM     48  C   UNL     1      -0.325  39.471  12.013  1.00  0.00    -0.010 C 
BRANCH  47  49
ATOM     49  C   UNL     1       1.573  40.830  12.543  1.00  0.00     0.104 C 
ATOM     50  O   UNL     1       1.628  41.085  13.747  1.00  0.00    -0.379 OA
ATOM     51  C   UNL     1       2.036  41.875  11.523  1.00  0.00    -0.025 C 
ENDBRANCH  47  49
ENDBRANCH  46  47
BRANCH  46  52
ATOM     52  C   UNL     1       1.438  37.665  10.679  1.00  0.00     0.063 C 
ATOM     53  O   UNL     1       1.486  38.139   9.331  1.00  0.00    -0.395 OA
ENDBRANCH  46  52
ENDBRANCH  44  46
ENDBRANCH  43  44
ENDBRANCH  41  43
ENDBRANCH  39  41
ENDBRANCH  38  39
ENDBRANCH   1  38
TORSDOF 13
ENDMDL
MODEL 10
REMARK VINA RESULT:    -6.858      1.736      3.684
REMARK INTER + INTRA:         -18.843
REMARK INTER:                 -15.018
REMARK INTRA:                  -3.824
REMARK UNBOUND:                -4.367
REMARK SMILES CC(O)N(C)[C@H](CO)C(O)N[C@H](C)C(O)NCC(O)N(C)[C@H]1C2CCC(O)C(C2)[C@@H]2CC(CCC2O)C[C@@H](C(O)O)N2C34OC25[C@]32C[C@]45N2C1O
REMARK SMILES IDX 17 1 18 2 19 3 20 4 21 5 22 6 50 7 51 8 49 9 46 10 48 11
REMARK SMILES IDX 47 12 43 13 45 14 42 15 44 16 38 17 37 18 32 19 31 20 33 21
REMARK SMILES IDX 30 22 34 23 35 24 36 26 39 27 40 28 41 29 23 30 29 31 24 32
REMARK SMILES IDX 28 33 25 34 26 35 27 37 16 38 14 39 15 40 12 41 13 42 11 43
REMARK SMILES IDX 9 44 10 45 6 46 4 47 5 48 2 49 3 50 1 51 7 52 8 53
REMARK H PARENT
REMARK Flexibility Score: 80.00
ROOT
ATOM      1  C   UNL     1      -0.737  35.167  15.316  1.00  0.00     0.037 C 
ENDROOT
BRANCH   1   2
ATOM      2  C   UNL     1      -1.361  33.772  15.413  1.00  0.00     0.120 C 
ATOM      3  O   UNL     1      -2.524  33.582  15.062  1.00  0.00    -0.377 OA
BRANCH   2   4
ATOM      4  N   UNL     1      -0.593  32.817  15.935  1.00  0.00    -0.273 NA
ATOM      5  C   UNL     1       0.448  33.236  16.887  1.00  0.00    -0.010 C 
BRANCH   4   6
ATOM      6  C   UNL     1      -0.822  31.414  15.559  1.00  0.00     0.054 C 
BRANCH   6   7
ATOM      7  C   UNL     1      -0.797  30.480  16.772  1.00  0.00     0.124 C 
ATOM      8  O   UNL     1      -1.757  30.380  17.534  1.00  0.00    -0.377 OA
BRANCH   7   9
ATOM      9  N   UNL     1       0.367  29.853  16.924  1.00  0.00    -0.249 NA
ATOM     10  C   UNL     1       1.228  29.947  18.112  1.00  0.00     0.116 C 
ATOM     11  C   UNL     1       1.228  29.947  18.112  1.00  0.00     0.116 C 
ATOM     12  C   UNL     1       0.952  28.780  19.062  1.00  0.00     0.001 C 
ATOM     13  C   UNL     1       2.669  29.881  17.601  1.00  0.00     0.173 C 
ATOM     14  C   UNL     1       2.669  29.881  17.601  1.00  0.00     0.173 C 
ATOM     15  N   UNL     1       3.358  31.015  17.680  1.00  0.00    -0.232 NA
ATOM     16  O   UNL     1       3.115  28.839  17.124  1.00  0.00    -0.330 OA
BRANCH  15  17
ATOM     17  C   UNL     1       4.749  31.148  17.218  1.00  0.00     0.066 C 
BRANCH  17  18
ATOM     18  C   UNL     1       4.813  32.029  15.966  1.00  0.00    -0.030 C 
BRANCH  18  19
ATOM     19  C   UNL     1       5.373  31.308  14.735  1.00  0.00    -0.039 C 
ATOM     20  C   UNL     1       5.692  32.013  13.580  1.00  0.00    -0.045 C 
ATOM     21  C   UNL     1       5.586  29.931  14.771  1.00  0.00    -0.048 C 
ATOM     22  C   UNL     1       6.224  31.375  12.464  1.00  0.00    -0.010 C
ATOM     23  C   UNL     1       6.114  29.281  13.659  1.00  0.00    -0.026 C 
ATOM     24  C   UNL     1       6.434  29.996  12.508  1.00  0.00     0.057 C 
ATOM     25  C   UNL     1       6.621  32.157  11.385  1.00  0.00     0.000 C
ATOM     26  O   UNL     1       6.961  29.344  11.439  1.00  0.00    -0.393 OA
ENDBRANCH  18  19
ENDBRANCH  17  18
BRANCH  17  27
ATOM     27  C   UNL     1       5.644  31.744  18.306  1.00  0.00     0.167 C 
ATOM     28  O   UNL     1       5.601  32.949  18.548  1.00  0.00    -0.367 OA
ATOM     29  O   UNL     1       6.410  31.027  18.948  1.00  0.00    -0.367 OA
ENDBRANCH  17  27
ENDBRANCH  15  17
ENDBRANCH   7   9
ENDBRANCH   6   7
BRANCH   6  30
ATOM     30  C   UNL     1       0.261  30.971  14.571  1.00  0.00    -0.021 C 
ATOM     31  C   UNL     1       0.917  31.924  13.798  1.00  0.00    -0.043 C 
ATOM     32  C   UNL     1       0.589  29.627  14.422  1.00  0.00    -0.046 C 
ATOM     33  C   UNL     1       1.900  31.564  12.880  1.00  0.00    -0.010 C
ATOM     34  C   UNL     1       1.563  29.256  13.497  1.00  0.00    -0.026 C 
ATOM     35  C   UNL     1       2.216  30.214  12.727  1.00  0.00     0.057 C 
ATOM     36  C   UNL     1       2.561  32.579  12.195  1.00  0.00     0.000 C
ATOM     37  O   UNL     1       3.163  29.822  11.832  1.00  0.00    -0.393 OA
ENDBRANCH   6  30
ENDBRANCH   4   6
ENDBRANCH   2   4
ENDBRANCH   1   2
BRANCH   1  38
ATOM     38  N   UNL     1       0.020  35.362  14.070  1.00  0.00    -0.287 NA
BRANCH  38  39
ATOM     39  C   UNL     1       1.290  35.753  14.073  1.00  0.00     0.120 C 
ATOM     40  O   UNL     1       2.084  35.479  14.972  1.00  0.00    -0.377 OA
BRANCH  39  41
ATOM     41  C   UNL     1       1.741  36.585  12.872  1.00  0.00     0.046 C 
ATOM     42  C   UNL     1       1.019  36.112  11.607  1.00  0.00    -0.046 C 
BRANCH  41  43
ATOM     43  N   UNL     1       1.386  37.979  13.181  1.00  0.00    -0.284 NA
BRANCH  43  44
ATOM     44  C   UNL     1       2.147  39.013  12.828  1.00  0.00     0.123 C 
ATOM     45  O   UNL     1       3.376  39.021  12.889  1.00  0.00    -0.377 OA
BRANCH  44  46
ATOM     46  C   UNL     1       1.370  40.227  12.310  1.00  0.00     0.074 C 
BRANCH  46  47
ATOM     47  N   UNL     1       0.462  39.904  11.197  1.00  0.00    -0.273 NA
ATOM     48  C   UNL     1       0.908  39.396   9.888  1.00  0.00    -0.010 C 
BRANCH  47  49
ATOM     49  C   UNL     1      -0.844  40.105  11.358  1.00  0.00     0.104 C 
ATOM     50  O   UNL     1      -1.335  41.226  11.500  1.00  0.00    -0.379 OA
ATOM     51  C   UNL     1      -1.754  38.872  11.350  1.00  0.00    -0.025 C 
ENDBRANCH  47  49
ENDBRANCH  46  47
BRANCH  46  52
ATOM     52  C   UNL     1       2.364  41.305  11.868  1.00  0.00     0.063 C 
ATOM     53  O   UNL     1       2.630  42.196  12.954  1.00  0.00    -0.395 OA
ENDBRANCH  46  52
ENDBRANCH  44  46
ENDBRANCH  43  44
ENDBRANCH  41  43
ENDBRANCH  39  41
ENDBRANCH  38  39
ENDBRANCH   1  38
TORSDOF 13
ENDMDL
MODEL 11
REMARK VINA RESULT:    -6.829      3.310      8.400
REMARK INTER + INTRA:         -18.781
REMARK INTER:                 -16.128
REMARK INTRA:                  -2.652
REMARK UNBOUND:                -4.367
REMARK SMILES CC(O)N(C)[C@H](CO)C(O)N[C@H](C)C(O)NCC(O)N(C)[C@H]1C2CCC(O)C(C2)[C@@H]2CC(CCC2O)C[C@@H](C(O)O)N2C34OC25[C@]32C[C@]45N2C1O
REMARK SMILES IDX 17 1 18 2 19 3 20 4 21 5 22 6 50 7 51 8 49 9 46 10 48 11
REMARK SMILES IDX 47 12 43 13 45 14 42 15 44 16 38 17 37 18 32 19 31 20 33 21
REMARK SMILES IDX 30 22 34 23 35 24 36 26 39 27 40 28 41 29 23 30 29 31 24 32
REMARK SMILES IDX 28 33 25 34 26 35 27 37 16 38 14 39 15 40 12 41 13 42 11 43
REMARK SMILES IDX 9 44 10 45 6 46 4 47 5 48 2 49 3 50 1 51 7 52 8 53
REMARK H PARENT
REMARK Flexibility Score: 80.00
ROOT
ATOM      1  C   UNL     1       1.218  43.911  11.917  1.00  0.00     0.037 C 
ENDROOT
BRANCH   1   2
ATOM      2  C   UNL     1       0.293  42.747  12.281  1.00  0.00     0.120 C 
ATOM      3  O   UNL     1      -0.581  42.886  13.134  1.00  0.00    -0.377 OA
BRANCH   2   4
ATOM      4  N   UNL     1       0.527  41.591  11.662  1.00  0.00    -0.273 NA
ATOM      5  C   UNL     1       1.787  41.473  10.909  1.00  0.00    -0.010 C 
BRANCH   4   6
ATOM      6  C   UNL     1      -0.453  40.499  11.766  1.00  0.00     0.054 C 
BRANCH   6   7
ATOM      7  C   UNL     1       0.198  39.122  11.605  1.00  0.00     0.124 C 
ATOM      8  O   UNL     1       0.093  38.473  10.567  1.00  0.00    -0.377 OA
BRANCH   7   9
ATOM      9  N   UNL     1       0.823  38.709  12.705  1.00  0.00    -0.249 NA
ATOM     10  C   UNL     1       1.897  37.705  12.738  1.00  0.00     0.116 C 
ATOM     11  C   UNL     1       1.897  37.705  12.738  1.00  0.00     0.116 C 
ATOM     12  C   UNL     1       3.266  38.390  12.722  1.00  0.00     0.001 C 
ATOM     13  C   UNL     1       1.713  36.925  14.041  1.00  0.00     0.173 C 
ATOM     14  C   UNL     1       1.713  36.925  14.041  1.00  0.00     0.173 C 
ATOM     15  N   UNL     1       1.288  35.673  13.906  1.00  0.00    -0.232 NA
ATOM     16  O   UNL     1       1.924  37.465  15.126  1.00  0.00    -0.330 OA
BRANCH  15  17
ATOM     17  C   UNL     1       1.033  34.780  15.048  1.00  0.00     0.066 C 
BRANCH  17  18
ATOM     18  C   UNL     1      -0.398  34.236  14.991  1.00  0.00    -0.030 C 
BRANCH  18  19
ATOM     19  C   UNL     1      -1.441  35.187  15.586  1.00  0.00    -0.039 C 
ATOM     20  C   UNL     1      -2.626  35.457  14.910  1.00  0.00    -0.045 C 
ATOM     21  C   UNL     1      -1.217  35.779  16.828  1.00  0.00    -0.048 C 
ATOM     22  C   UNL     1      -3.593  36.300  15.451  1.00  0.00    -0.010 C
ATOM     23  C   UNL     1      -2.175  36.626  17.376  1.00  0.00    -0.026 C 
ATOM     24  C   UNL     1      -3.361  36.889  16.694  1.00  0.00     0.057 C 
ATOM     25  C   UNL     1      -4.799  36.440  14.771  1.00  0.00     0.000 C
ATOM     26  O   UNL     1      -4.289  37.709  17.253  1.00  0.00    -0.393 OA
ENDBRANCH  18  19
ENDBRANCH  17  18
BRANCH  17  27
ATOM     27  C   UNL     1       2.021  33.612  15.073  1.00  0.00     0.167 C 
ATOM     28  O   UNL     1       3.156  33.774  15.519  1.00  0.00    -0.367 OA
ATOM     29  O   UNL     1       1.692  32.505  14.650  1.00  0.00    -0.367 OA
ENDBRANCH  17  27
ENDBRANCH  15  17
ENDBRANCH   7   9
ENDBRANCH   6   7
BRANCH   6  30
ATOM     30  C   UNL     1      -1.521  40.671  10.682  1.00  0.00    -0.021 C 
ATOM     31  C   UNL     1      -2.783  40.114  10.866  1.00  0.00    -0.043 C 
ATOM     32  C   UNL     1      -1.244  41.363   9.507  1.00  0.00    -0.046 C 
ATOM     33  C   UNL     1      -3.779  40.238   9.902  1.00  0.00    -0.010 C
ATOM     34  C   UNL     1      -2.231  41.482   8.531  1.00  0.00    -0.026 C 
ATOM     35  C   UNL     1      -3.492  40.923   8.721  1.00  0.00     0.057 C 
ATOM     36  C   UNL     1      -5.037  39.716  10.187  1.00  0.00     0.000 C
ATOM     37  O   UNL     1      -4.436  41.055   7.750  1.00  0.00    -0.393 OA
ENDBRANCH   6  30
ENDBRANCH   4   6
ENDBRANCH   2   4
ENDBRANCH   1   2
BRANCH   1  38
ATOM     38  N   UNL     1       0.527  44.967  11.160  1.00  0.00    -0.287 NA
BRANCH  38  39
ATOM     39  C   UNL     1       0.205  46.131  11.713  1.00  0.00     0.120 C 
ATOM     40  O   UNL     1      -0.309  46.238  12.826  1.00  0.00    -0.377 OA
BRANCH  39  41
ATOM     41  C   UNL     1       0.512  47.378  10.883  1.00  0.00     0.046 C 
ATOM     42  C   UNL     1       2.005  47.706  10.966  1.00  0.00    -0.046 C 
BRANCH  41  43
ATOM     43  N   UNL     1       0.127  47.056   9.501  1.00  0.00    -0.284 NA
BRANCH  43  44
ATOM     44  C   UNL     1      -0.908  47.626   8.887  1.00  0.00     0.123 C 
ATOM     45  O   UNL     1      -1.599  48.517   9.380  1.00  0.00    -0.377 OA
BRANCH  44  46
ATOM     46  C   UNL     1      -1.185  47.095   7.478  1.00  0.00     0.074 C 
BRANCH  46  47
ATOM     47  N   UNL     1      -2.619  46.907   7.201  1.00  0.00    -0.273 NA
ATOM     48  C   UNL     1      -3.435  47.835   6.399  1.00  0.00    -0.010 C 
BRANCH  47  49
ATOM     49  C   UNL     1      -3.239  45.852   7.727  1.00  0.00     0.104 C 
ATOM     50  O   UNL     1      -3.180  44.726   7.230  1.00  0.00    -0.379 OA
ATOM     51  C   UNL     1      -4.043  46.075   9.012  1.00  0.00    -0.025 C 
ENDBRANCH  47  49
ENDBRANCH  46  47
BRANCH  46  52
ATOM     52  C   UNL     1      -0.446  45.768   7.290  1.00  0.00     0.063 C 
ATOM     53  O   UNL     1       0.165  45.731   5.997  1.00  0.00    -0.395 OA
ENDBRANCH  46  52
ENDBRANCH  44  46
ENDBRANCH  43  44
ENDBRANCH  41  43
ENDBRANCH  39  41
ENDBRANCH  38  39
ENDBRANCH   1  38
TORSDOF 13
ENDMDL
MODEL 12
REMARK VINA RESULT:    -6.808      3.434      5.865
REMARK INTER + INTRA:         -18.737
REMARK INTER:                 -13.962
REMARK INTRA:                  -4.775
REMARK UNBOUND:                -4.367
REMARK SMILES CC(O)N(C)[C@H](CO)C(O)N[C@H](C)C(O)NCC(O)N(C)[C@H]1C2CCC(O)C(C2)[C@@H]2CC(CCC2O)C[C@@H](C(O)O)N2C34OC25[C@]32C[C@]45N2C1O
REMARK SMILES IDX 17 1 18 2 19 3 20 4 21 5 22 6 50 7 51 8 49 9 46 10 48 11
REMARK SMILES IDX 47 12 43 13 45 14 42 15 44 16 38 17 37 18 32 19 31 20 33 21
REMARK SMILES IDX 30 22 34 23 35 24 36 26 39 27 40 28 41 29 23 30 29 31 24 32
REMARK SMILES IDX 28 33 25 34 26 35 27 37 16 38 14 39 15 40 12 41 13 42 11 43
REMARK SMILES IDX 9 44 10 45 6 46 4 47 5 48 2 49 3 50 1 51 7 52 8 53
REMARK H PARENT
REMARK Flexibility Score: 80.00
ROOT
ATOM      1  C   UNL     1      -3.086  31.303  14.366  1.00  0.00     0.037 C 
ENDROOT
BRANCH   1   2
ATOM      2  C   UNL     1      -3.016  30.720  15.780  1.00  0.00     0.120 C 
ATOM      3  O   UNL     1      -3.919  30.002  16.205  1.00  0.00    -0.377 OA
BRANCH   2   4
ATOM      4  N   UNL     1      -1.963  31.075  16.515  1.00  0.00    -0.273 NA
ATOM      5  C   UNL     1      -2.040  32.362  17.223  1.00  0.00    -0.010 C 
BRANCH   4   6
ATOM      6  C   UNL     1      -0.800  30.178  16.598  1.00  0.00     0.054 C 
BRANCH   6   7
ATOM      7  C   UNL     1      -0.649  29.555  17.988  1.00  0.00     0.124 C 
ATOM      8  O   UNL     1      -1.334  29.923  18.941  1.00  0.00    -0.377 OA
BRANCH   7   9
ATOM      9  N   UNL     1       0.313  28.638  18.048  1.00  0.00    -0.249 NA
ATOM     10  C   UNL     1       1.301  28.521  19.130  1.00  0.00     0.116 C 
ATOM     11  C   UNL     1       1.301  28.521  19.130  1.00  0.00     0.116 C 
ATOM     12  C   UNL     1       0.836  27.494  20.166  1.00  0.00     0.001 C 
ATOM     13  C   UNL     1       2.601  28.053  18.473  1.00  0.00     0.173 C 
ATOM     14  C   UNL     1       2.601  28.053  18.473  1.00  0.00     0.173 C 
ATOM     15  N   UNL     1       3.574  28.957  18.417  1.00  0.00    -0.232 NA
ATOM     16  O   UNL     1       2.692  26.918  18.008  1.00  0.00    -0.330 OA
BRANCH  15  17
ATOM     17  C   UNL     1       4.885  28.695  17.802  1.00  0.00     0.066 C 
BRANCH  17  18
ATOM     18  C   UNL     1       5.297  29.866  16.904  1.00  0.00    -0.030 C 
BRANCH  18  19
ATOM     19  C   UNL     1       5.079  29.601  15.411  1.00  0.00    -0.039 C 
ATOM     20  C   UNL     1       5.796  30.306  14.451  1.00  0.00    -0.045 C 
ATOM     21  C   UNL     1       4.168  28.629  15.001  1.00  0.00    -0.048 C 
ATOM     22  C   UNL     1       5.627  30.058  13.092  1.00  0.00    -0.010 C
ATOM     23  C   UNL     1       3.988  28.376  13.644  1.00  0.00    -0.026 C 
ATOM     24  C   UNL     1       4.712  29.084  12.689  1.00  0.00     0.057 C 
ATOM     25  C   UNL     1       6.454  30.723  12.193  1.00  0.00     0.000 C
ATOM     26  O   UNL     1       4.531  28.811  11.371  1.00  0.00    -0.393 OA
ENDBRANCH  18  19
ENDBRANCH  17  18
BRANCH  17  27
ATOM     27  C   UNL     1       5.962  28.464  18.864  1.00  0.00     0.167 C 
ATOM     28  O   UNL     1       5.738  28.747  20.041  1.00  0.00    -0.367 OA
ATOM     29  O   UNL     1       7.056  27.995  18.554  1.00  0.00    -0.367 OA
ENDBRANCH  17  27
ENDBRANCH  15  17
ENDBRANCH   7   9
ENDBRANCH   6   7
BRANCH   6  30
ATOM     30  C   UNL     1       0.472  30.967  16.269  1.00  0.00    -0.021 C 
ATOM     31  C   UNL     1       0.908  31.048  14.949  1.00  0.00    -0.043 C 
ATOM     32  C   UNL     1       1.208  31.591  17.271  1.00  0.00    -0.046 C 
ATOM     33  C   UNL     1       2.063  31.745  14.607  1.00  0.00    -0.010 C
ATOM     34  C   UNL     1       2.371  32.281  16.940  1.00  0.00    -0.026 C 
ATOM     35  C   UNL     1       2.802  32.359  15.618  1.00  0.00     0.057 C 
ATOM     36  C   UNL     1       2.396  31.842  13.260  1.00  0.00     0.000 C
ATOM     37  O   UNL     1       3.943  33.040  15.325  1.00  0.00    -0.393 OA
ENDBRANCH   6  30
ENDBRANCH   4   6
ENDBRANCH   2   4
ENDBRANCH   1   2
BRANCH   1  38
ATOM     38  N   UNL     1      -4.447  31.715  13.992  1.00  0.00    -0.287 NA
BRANCH  38  39
ATOM     39  C   UNL     1      -4.977  32.858  14.413  1.00  0.00     0.120 C 
ATOM     40  O   UNL     1      -5.636  32.963  15.447  1.00  0.00    -0.377 OA
BRANCH  39  41
ATOM     41  C   UNL     1      -4.723  34.082  13.533  1.00  0.00     0.046 C 
ATOM     42  C   UNL     1      -6.042  34.577  12.933  1.00  0.00    -0.046 C 
BRANCH  41  43
ATOM     43  N   UNL     1      -4.137  35.106  14.412  1.00  0.00    -0.284 NA
BRANCH  43  44
ATOM     44  C   UNL     1      -3.213  35.970  13.999  1.00  0.00     0.123 C 
ATOM     45  O   UNL     1      -3.234  36.535  12.906  1.00  0.00    -0.377 OA
BRANCH  44  46
ATOM     46  C   UNL     1      -2.092  36.237  15.008  1.00  0.00     0.074 C 
BRANCH  46  47
ATOM     47  N   UNL     1      -0.866  35.472  14.728  1.00  0.00    -0.273 NA
ATOM     48  C   UNL     1      -0.852  34.081  14.243  1.00  0.00    -0.010 C 
BRANCH  47  49
ATOM     49  C   UNL     1       0.313  36.050  14.950  1.00  0.00     0.104 C 
ATOM     50  O   UNL     1       1.373  35.422  14.967  1.00  0.00    -0.379 OA
ATOM     51  C   UNL     1       0.323  37.564  15.182  1.00  0.00    -0.025 C 
ENDBRANCH  47  49
ENDBRANCH  46  47
BRANCH  46  52
ATOM     52  C   UNL     1      -2.597  35.904  16.414  1.00  0.00     0.063 C 
ATOM     53  O   UNL     1      -3.039  37.097  17.067  1.00  0.00    -0.395 OA
ENDBRANCH  46  52
ENDBRANCH  44  46
ENDBRANCH  43  44
ENDBRANCH  41  43
ENDBRANCH  39  41
ENDBRANCH  38  39
ENDBRANCH   1  38
TORSDOF 13
ENDMDL
MODEL 13
REMARK VINA RESULT:    -6.719      2.035      2.963
REMARK INTER + INTRA:         -18.549
REMARK INTER:                 -14.928
REMARK INTRA:                  -3.621
REMARK UNBOUND:                -4.367
REMARK SMILES CC(O)N(C)[C@H](CO)C(O)N[C@H](C)C(O)NCC(O)N(C)[C@H]1C2CCC(O)C(C2)[C@@H]2CC(CCC2O)C[C@@H](C(O)O)N2C34OC25[C@]32C[C@]45N2C1O
REMARK SMILES IDX 17 1 18 2 19 3 20 4 21 5 22 6 50 7 51 8 49 9 46 10 48 11
REMARK SMILES IDX 47 12 43 13 45 14 42 15 44 16 38 17 37 18 32 19 31 20 33 21
REMARK SMILES IDX 30 22 34 23 35 24 36 26 39 27 40 28 41 29 23 30 29 31 24 32
REMARK SMILES IDX 28 33 25 34 26 35 27 37 16 38 14 39 15 40 12 41 13 42 11 43
REMARK SMILES IDX 9 44 10 45 6 46 4 47 5 48 2 49 3 50 1 51 7 52 8 53
REMARK H PARENT
REMARK Flexibility Score: 80.00
ROOT
ATOM      1  C   UNL     1       0.848  32.460  13.601  1.00  0.00     0.037 C 
ENDROOT
BRANCH   1   2
ATOM      2  C   UNL     1      -0.667  32.667  13.524  1.00  0.00     0.120 C 
ATOM      3  O   UNL     1      -1.174  33.218  12.549  1.00  0.00    -0.377 OA
BRANCH   2   4
ATOM      4  N   UNL     1      -1.373  32.265  14.580  1.00  0.00    -0.273 NA
ATOM      5  C   UNL     1      -2.557  31.430  14.320  1.00  0.00    -0.010 C 
BRANCH   4   6
ATOM      6  C   UNL     1      -0.940  32.649  15.932  1.00  0.00     0.054 C 
BRANCH   6   7
ATOM      7  C   UNL     1      -1.273  31.576  16.972  1.00  0.00     0.124 C 
ATOM      8  O   UNL     1      -2.094  31.771  17.865  1.00  0.00    -0.377 OA
BRANCH   7   9
ATOM      9  N   UNL     1      -0.553  30.466  16.825  1.00  0.00    -0.249 NA
ATOM     10  C   UNL     1      -0.256  29.506  17.898  1.00  0.00     0.116 C 
ATOM     11  C   UNL     1      -0.256  29.506  17.898  1.00  0.00     0.116 C 
ATOM     12  C   UNL     1      -1.264  28.354  17.875  1.00  0.00     0.001 C 
ATOM     13  C   UNL     1       1.153  28.977  17.619  1.00  0.00     0.173 C 
ATOM     14  C   UNL     1       1.153  28.977  17.619  1.00  0.00     0.173 C 
ATOM     15  N   UNL     1       2.096  29.385  18.464  1.00  0.00    -0.232 NA
ATOM     16  O   UNL     1       1.367  28.252  16.649  1.00  0.00    -0.330 OA
BRANCH  15  17
ATOM     17  C   UNL     1       3.510  28.998  18.341  1.00  0.00     0.066 C 
BRANCH  17  18
ATOM     18  C   UNL     1       4.404  30.242  18.320  1.00  0.00    -0.030 C 
BRANCH  18  19
ATOM     19  C   UNL     1       4.882  30.631  16.917  1.00  0.00    -0.039 C 
ATOM     20  C   UNL     1       5.346  29.665  16.030  1.00  0.00    -0.045 C 
ATOM     21  C   UNL     1       4.838  31.962  16.509  1.00  0.00    -0.048 C 
ATOM     22  C   UNL     1       5.760  30.000  14.744  1.00  0.00    -0.010 C
ATOM     23  C   UNL     1       5.253  32.309  15.227  1.00  0.00    -0.026 C 
ATOM     24  C   UNL     1       5.713  31.336  14.344  1.00  0.00     0.057 C 
ATOM     25  C   UNL     1       6.108  28.971  13.876  1.00  0.00     0.000 C
ATOM     26  O   UNL     1       6.100  31.695  13.092  1.00  0.00    -0.393 OA
ENDBRANCH  18  19
ENDBRANCH  17  18
BRANCH  17  27
ATOM     27  C   UNL     1       3.939  28.082  19.490  1.00  0.00     0.167 C 
ATOM     28  O   UNL     1       4.909  27.337  19.355  1.00  0.00    -0.367 OA
ATOM     29  O   UNL     1       3.324  28.085  20.555  1.00  0.00    -0.367 OA
ENDBRANCH  17  27
ENDBRANCH  15  17
ENDBRANCH   7   9
ENDBRANCH   6   7
BRANCH   6  30
ATOM     30  C   UNL     1      -1.630  33.957  16.332  1.00  0.00    -0.021 C 
ATOM     31  C   UNL     1      -2.839  34.306  15.736  1.00  0.00    -0.043 C 
ATOM     32  C   UNL     1      -1.060  34.810  17.271  1.00  0.00    -0.046 C 
ATOM     33  C   UNL     1      -3.495  35.489  16.062  1.00  0.00    -0.010 C
ATOM     34  C   UNL     1      -1.703  36.003  17.595  1.00  0.00    -0.026 C 
ATOM     35  C   UNL     1      -2.912  36.346  16.997  1.00  0.00     0.057 C 
ATOM     36  C   UNL     1      -4.733  35.736  15.478  1.00  0.00     0.000 C
ATOM     37  O   UNL     1      -3.517  37.518  17.333  1.00  0.00    -0.393 OA
ENDBRANCH   6  30
ENDBRANCH   4   6
ENDBRANCH   2   4
ENDBRANCH   1   2
BRANCH   1  38
ATOM     38  N   UNL     1       1.603  33.648  13.174  1.00  0.00    -0.287 NA
BRANCH  38  39
ATOM     39  C   UNL     1       1.657  34.750  13.914  1.00  0.00     0.120 C 
ATOM     40  O   UNL     1       2.193  34.801  15.021  1.00  0.00    -0.377 OA
BRANCH  39  41
ATOM     41  C   UNL     1       1.005  35.996  13.315  1.00  0.00     0.046 C 
ATOM     42  C   UNL     1      -0.183  36.431  14.177  1.00  0.00    -0.046 C 
BRANCH  41  43
ATOM     43  N   UNL     1       2.045  37.037  13.302  1.00  0.00    -0.284 NA
BRANCH  43  44
ATOM     44  C   UNL     1       2.203  37.887  12.289  1.00  0.00     0.123 C 
ATOM     45  O   UNL     1       3.005  37.726  11.370  1.00  0.00    -0.377 OA
BRANCH  44  46
ATOM     46  C   UNL     1       1.284  39.111  12.336  1.00  0.00     0.074 C 
BRANCH  46  47
ATOM     47  N   UNL     1       0.442  39.250  11.136  1.00  0.00    -0.273 NA
ATOM     48  C   UNL     1       0.685  40.229  10.063  1.00  0.00    -0.010 C 
BRANCH  47  49
ATOM     49  C   UNL     1      -0.630  38.468  11.014  1.00  0.00     0.104 C 
ATOM     50  O   UNL     1      -1.659  38.637  11.670  1.00  0.00    -0.379 OA
ATOM     51  C   UNL     1      -0.554  37.323   9.998  1.00  0.00    -0.025 C 
ENDBRANCH  47  49
ENDBRANCH  46  47
BRANCH  46  52
ATOM     52  C   UNL     1       2.138  40.370  12.513  1.00  0.00     0.063 C 
ATOM     53  O   UNL     1       1.685  41.108  13.651  1.00  0.00    -0.395 OA
ENDBRANCH  46  52
ENDBRANCH  44  46
ENDBRANCH  43  44
ENDBRANCH  41  43
ENDBRANCH  39  41
ENDBRANCH  38  39
ENDBRANCH   1  38
TORSDOF 13
ENDMDL
MODEL 14
REMARK VINA RESULT:    -6.691      4.191     11.213
REMARK INTER + INTRA:         -18.490
REMARK INTER:                 -15.056
REMARK INTRA:                  -3.434
REMARK UNBOUND:                -4.367
REMARK SMILES CC(O)N(C)[C@H](CO)C(O)N[C@H](C)C(O)NCC(O)N(C)[C@H]1C2CCC(O)C(C2)[C@@H]2CC(CCC2O)C[C@@H](C(O)O)N2C34OC25[C@]32C[C@]45N2C1O
REMARK SMILES IDX 17 1 18 2 19 3 20 4 21 5 22 6 50 7 51 8 49 9 46 10 48 11
REMARK SMILES IDX 47 12 43 13 45 14 42 15 44 16 38 17 37 18 32 19 31 20 33 21
REMARK SMILES IDX 30 22 34 23 35 24 36 26 39 27 40 28 41 29 23 30 29 31 24 32
REMARK SMILES IDX 28 33 25 34 26 35 27 37 16 38 14 39 15 40 12 41 13 42 11 43
REMARK SMILES IDX 9 44 10 45 6 46 4 47 5 48 2 49 3 50 1 51 7 52 8 53
REMARK H PARENT
REMARK Flexibility Score: 80.00
ROOT
ATOM      1  C   UNL     1       0.506  29.478  17.726  1.00  0.00     0.037 C 
ENDROOT
BRANCH   1   2
ATOM      2  C   UNL     1      -0.753  30.345  17.803  1.00  0.00     0.120 C 
ATOM      3  O   UNL     1      -1.750  29.948  18.403  1.00  0.00    -0.377 OA
BRANCH   2   4
ATOM      4  N   UNL     1      -0.712  31.505  17.150  1.00  0.00    -0.273 NA
ATOM      5  C   UNL     1       0.616  32.085  16.891  1.00  0.00    -0.010 C 
BRANCH   4   6
ATOM      6  C   UNL     1      -1.966  32.137  16.710  1.00  0.00     0.054 C 
BRANCH   6   7
ATOM      7  C   UNL     1      -2.354  31.721  15.289  1.00  0.00     0.124 C 
ATOM      8  O   UNL     1      -1.571  31.128  14.550  1.00  0.00    -0.377 OA
BRANCH   7   9
ATOM      9  N   UNL     1      -3.579  32.112  14.947  1.00  0.00    -0.249 NA
ATOM     10  C   UNL     1      -4.057  32.281  13.567  1.00  0.00     0.116 C 
ATOM     11  C   UNL     1      -4.057  32.281  13.567  1.00  0.00     0.116 C 
ATOM     12  C   UNL     1      -4.783  31.018  13.097  1.00  0.00     0.001 C 
ATOM     13  C   UNL     1      -5.025  33.466  13.592  1.00  0.00     0.173 C 
ATOM     14  C   UNL     1      -5.025  33.466  13.592  1.00  0.00     0.173 C 
ATOM     15  N   UNL     1      -4.590  34.575  13.001  1.00  0.00    -0.232 NA
ATOM     16  O   UNL     1      -6.112  33.371  14.160  1.00  0.00    -0.330 OA
BRANCH  15  17
ATOM     17  C   UNL     1      -5.374  35.819  12.946  1.00  0.00     0.066 C 
BRANCH  17  18
ATOM     18  C   UNL     1      -4.846  36.828  13.971  1.00  0.00    -0.030 C 
BRANCH  18  19
ATOM     19  C   UNL     1      -5.671  36.883  15.260  1.00  0.00    -0.039 C 
ATOM     20  C   UNL     1      -6.938  37.457  15.271  1.00  0.00    -0.045 C 
ATOM     21  C   UNL     1      -5.162  36.338  16.438  1.00  0.00    -0.048 C 
ATOM     22  C   UNL     1      -7.709  37.491  16.429  1.00  0.00    -0.010 C
ATOM     23  C   UNL     1      -5.923  36.370  17.603  1.00  0.00    -0.026 C 
ATOM     24  C   UNL     1      -7.192  36.944  17.604  1.00  0.00     0.057 C 
ATOM     25  C   UNL     1      -9.007  37.982  16.341  1.00  0.00     0.000 C
ATOM     26  O   UNL     1      -7.923  36.952  18.749  1.00  0.00    -0.393 OA
ENDBRANCH  18  19
ENDBRANCH  17  18
BRANCH  17  27
ATOM     27  C   UNL     1      -5.332  36.443  11.549  1.00  0.00     0.167 C 
ATOM     28  O   UNL     1      -4.675  35.910  10.656  1.00  0.00    -0.367 OA
ATOM     29  O   UNL     1      -5.953  37.476  11.307  1.00  0.00    -0.367 OA
ENDBRANCH  17  27
ENDBRANCH  15  17
ENDBRANCH   7   9
ENDBRANCH   6   7
BRANCH   6  30
ATOM     30  C   UNL     1      -1.808  33.660  16.755  1.00  0.00    -0.021 C 
ATOM     31  C   UNL     1      -1.399  34.342  15.613  1.00  0.00    -0.043 C 
ATOM     32  C   UNL     1      -2.052  34.372  17.925  1.00  0.00    -0.046 C 
ATOM     33  C   UNL     1      -1.233  35.724  15.612  1.00  0.00    -0.010 C
ATOM     34  C   UNL     1      -1.877  35.754  17.937  1.00  0.00    -0.026 C 
ATOM     35  C   UNL     1      -1.468  36.431  16.791  1.00  0.00     0.057 C 
ATOM     36  C   UNL     1      -0.891  36.343  14.414  1.00  0.00     0.000 C
ATOM     37  O   UNL     1      -1.305  37.781  16.834  1.00  0.00    -0.393 OA
ENDBRANCH   6  30
ENDBRANCH   4   6
ENDBRANCH   2   4
ENDBRANCH   1   2
BRANCH   1  38
ATOM     38  N   UNL     1       0.566  28.473  18.799  1.00  0.00    -0.287 NA
BRANCH  38  39
ATOM     39  C   UNL     1       1.208  28.701  19.940  1.00  0.00     0.120 C 
ATOM     40  O   UNL     1       0.745  29.376  20.859  1.00  0.00    -0.377 OA
BRANCH  39  41
ATOM     41  C   UNL     1       2.593  28.067  20.071  1.00  0.00     0.046 C 
ATOM     42  C   UNL     1       2.589  26.668  19.450  1.00  0.00    -0.046 C 
BRANCH  41  43
ATOM     43  N   UNL     1       3.520  28.953  19.350  1.00  0.00    -0.284 NA
BRANCH  43  44
ATOM     44  C   UNL     1       4.740  29.241  19.799  1.00  0.00     0.123 C 
ATOM     45  O   UNL     1       5.017  29.421  20.984  1.00  0.00    -0.377 OA
BRANCH  44  46
ATOM     46  C   UNL     1       5.816  29.324  18.711  1.00  0.00     0.074 C 
BRANCH  46  47
ATOM     47  N   UNL     1       5.512  30.320  17.670  1.00  0.00    -0.273 NA
ATOM     48  C   UNL     1       5.359  30.000  16.241  1.00  0.00    -0.010 C 
BRANCH  47  49
ATOM     49  C   UNL     1       5.396  31.599  18.023  1.00  0.00     0.104 C 
ATOM     50  O   UNL     1       4.419  32.287  17.728  1.00  0.00    -0.379 OA
ATOM     51  C   UNL     1       6.538  32.210  18.842  1.00  0.00    -0.025 C 
ENDBRANCH  47  49
ENDBRANCH  46  47
BRANCH  46  52
ATOM     52  C   UNL     1       5.986  27.944  18.070  1.00  0.00     0.063 C 
ATOM     53  O   UNL     1       7.370  27.692  17.817  1.00  0.00    -0.395 OA
ENDBRANCH  46  52
ENDBRANCH  44  46
ENDBRANCH  43  44
ENDBRANCH  41  43
ENDBRANCH  39  41
ENDBRANCH  38  39
ENDBRANCH   1  38
TORSDOF 13
ENDMDL
MODEL 15
REMARK VINA RESULT:    -6.686      3.837      5.776
REMARK INTER + INTRA:         -18.479
REMARK INTER:                 -13.410
REMARK INTRA:                  -5.069
REMARK UNBOUND:                -4.367
REMARK SMILES CC(O)N(C)[C@H](CO)C(O)N[C@H](C)C(O)NCC(O)N(C)[C@H]1C2CCC(O)C(C2)[C@@H]2CC(CCC2O)C[C@@H](C(O)O)N2C34OC25[C@]32C[C@]45N2C1O
REMARK SMILES IDX 17 1 18 2 19 3 20 4 21 5 22 6 50 7 51 8 49 9 46 10 48 11
REMARK SMILES IDX 47 12 43 13 45 14 42 15 44 16 38 17 37 18 32 19 31 20 33 21
REMARK SMILES IDX 30 22 34 23 35 24 36 26 39 27 40 28 41 29 23 30 29 31 24 32
REMARK SMILES IDX 28 33 25 34 26 35 27 37 16 38 14 39 15 40 12 41 13 42 11 43
REMARK SMILES IDX 9 44 10 45 6 46 4 47 5 48 2 49 3 50 1 51 7 52 8 53
REMARK H PARENT
REMARK Flexibility Score: 80.00
ROOT
ATOM      1  C   UNL     1      -2.634  30.300  14.160  1.00  0.00     0.037 C 
ENDROOT
BRANCH   1   2
ATOM      2  C   UNL     1      -2.906  30.510  15.652  1.00  0.00     0.120 C 
ATOM      3  O   UNL     1      -4.030  30.325  16.114  1.00  0.00    -0.377 OA
BRANCH   2   4
ATOM      4  N   UNL     1      -1.880  30.942  16.384  1.00  0.00    -0.273 NA
ATOM      5  C   UNL     1      -2.002  32.277  16.992  1.00  0.00    -0.010 C 
BRANCH   4   6
ATOM      6  C   UNL     1      -0.702  30.081  16.563  1.00  0.00     0.054 C 
BRANCH   6   7
ATOM      7  C   UNL     1      -0.608  29.519  17.985  1.00  0.00     0.124 C 
ATOM      8  O   UNL     1      -1.338  29.920  18.890  1.00  0.00    -0.377 OA
BRANCH   7   9
ATOM      9  N   UNL     1       0.359  28.617  18.127  1.00  0.00    -0.249 NA
ATOM     10  C   UNL     1       1.327  28.585  19.233  1.00  0.00     0.116 C 
ATOM     11  C   UNL     1       1.327  28.585  19.233  1.00  0.00     0.116 C 
ATOM     12  C   UNL     1       0.850  27.629  20.330  1.00  0.00     0.001 C 
ATOM     13  C   UNL     1       2.643  28.083  18.634  1.00  0.00     0.173 C 
ATOM     14  C   UNL     1       2.643  28.083  18.634  1.00  0.00     0.173 C 
ATOM     15  N   UNL     1       3.610  28.989  18.533  1.00  0.00    -0.232 NA
ATOM     16  O   UNL     1       2.751  26.918  18.252  1.00  0.00    -0.330 OA
BRANCH  15  17
ATOM     17  C   UNL     1       4.935  28.695  17.963  1.00  0.00     0.066 C 
BRANCH  17  18
ATOM     18  C   UNL     1       5.364  29.814  17.007  1.00  0.00    -0.030 C 
BRANCH  18  19
ATOM     19  C   UNL     1       5.097  29.497  15.532  1.00  0.00    -0.039 C 
ATOM     20  C   UNL     1       5.820  30.130  14.526  1.00  0.00    -0.045 C 
ATOM     21  C   UNL     1       4.135  28.551  15.185  1.00  0.00    -0.048 C 
ATOM     22  C   UNL     1       5.605  29.833  13.183  1.00  0.00    -0.010 C
ATOM     23  C   UNL     1       3.909  28.250  13.845  1.00  0.00    -0.026 C 
ATOM     24  C   UNL     1       4.639  28.886  12.844  1.00  0.00     0.057 C 
ATOM     25  C   UNL     1       6.437  30.424  12.238  1.00  0.00     0.000 C
ATOM     26  O   UNL     1       4.412  28.567  11.543  1.00  0.00    -0.393 OA
ENDBRANCH  18  19
ENDBRANCH  17  18
BRANCH  17  27
ATOM     27  C   UNL     1       5.989  28.530  19.059  1.00  0.00     0.167 C 
ATOM     28  O   UNL     1       7.105  28.093  18.780  1.00  0.00    -0.367 OA
ATOM     29  O   UNL     1       5.733  28.831  20.224  1.00  0.00    -0.367 OA
ENDBRANCH  17  27
ENDBRANCH  15  17
ENDBRANCH   7   9
ENDBRANCH   6   7
BRANCH   6  30
ATOM     30  C   UNL     1       0.566  30.888  16.265  1.00  0.00    -0.021 C 
ATOM     31  C   UNL     1       1.021  30.994  14.954  1.00  0.00    -0.043 C 
ATOM     32  C   UNL     1       1.280  31.505  17.288  1.00  0.00    -0.046 C 
ATOM     33  C   UNL     1       2.173  31.709  14.640  1.00  0.00    -0.010 C
ATOM     34  C   UNL     1       2.441  32.212  16.985  1.00  0.00    -0.026 C 
ATOM     35  C   UNL     1       2.890  32.315  15.672  1.00  0.00     0.057 C 
ATOM     36  C   UNL     1       2.525  31.830  13.300  1.00  0.00     0.000 C
ATOM     37  O   UNL     1       4.028  33.013  15.406  1.00  0.00    -0.393 OA
ENDBRANCH   6  30
ENDBRANCH   4   6
ENDBRANCH   2   4
ENDBRANCH   1   2
BRANCH   1  38
ATOM     38  N   UNL     1      -3.024  31.462  13.346  1.00  0.00    -0.287 NA
BRANCH  38  39
ATOM     39  C   UNL     1      -2.253  31.927  12.369  1.00  0.00     0.120 C 
ATOM     40  O   UNL     1      -2.364  31.585  11.192  1.00  0.00    -0.377 OA
BRANCH  39  41
ATOM     41  C   UNL     1      -1.185  32.941  12.780  1.00  0.00     0.046 C 
ATOM     42  C   UNL     1      -0.330  33.320  11.567  1.00  0.00    -0.046 C 
BRANCH  41  43
ATOM     43  N   UNL     1      -1.908  34.115  13.291  1.00  0.00    -0.284 NA
BRANCH  43  44
ATOM     44  C   UNL     1      -1.455  34.861  14.297  1.00  0.00     0.123 C 
ATOM     45  O   UNL     1      -0.438  34.609  14.942  1.00  0.00    -0.377 OA
BRANCH  44  46
ATOM     46  C   UNL     1      -2.300  36.102  14.600  1.00  0.00     0.074 C 
BRANCH  46  47
ATOM     47  N   UNL     1      -3.190  35.928  15.760  1.00  0.00    -0.273 NA
ATOM     48  C   UNL     1      -4.269  34.928  15.831  1.00  0.00    -0.010 C 
BRANCH  47  49
ATOM     49  C   UNL     1      -3.042  36.738  16.807  1.00  0.00     0.104 C 
ATOM     50  O   UNL     1      -3.911  37.537  17.161  1.00  0.00    -0.379 OA
ATOM     51  C   UNL     1      -1.730  36.643  17.592  1.00  0.00    -0.025 C 
ENDBRANCH  47  49
ENDBRANCH  46  47
BRANCH  46  52
ATOM     52  C   UNL     1      -3.129  36.457  13.363  1.00  0.00     0.063 C 
ATOM     53  O   UNL     1      -2.444  37.441  12.584  1.00  0.00    -0.395 OA
ENDBRANCH  46  52
ENDBRANCH  44  46
ENDBRANCH  43  44
ENDBRANCH  41  43
ENDBRANCH  39  41
ENDBRANCH  38  39
ENDBRANCH   1  38
TORSDOF 13
ENDMDL
MODEL 16
REMARK VINA RESULT:    -6.667      3.459      5.711
REMARK INTER + INTRA:         -18.440
REMARK INTER:                 -14.308
REMARK INTRA:                  -4.132
REMARK UNBOUND:                -4.367
REMARK SMILES CC(O)N(C)[C@H](CO)C(O)N[C@H](C)C(O)NCC(O)N(C)[C@H]1C2CCC(O)C(C2)[C@@H]2CC(CCC2O)C[C@@H](C(O)O)N2C34OC25[C@]32C[C@]45N2C1O
REMARK SMILES IDX 17 1 18 2 19 3 20 4 21 5 22 6 50 7 51 8 49 9 46 10 48 11
REMARK SMILES IDX 47 12 43 13 45 14 42 15 44 16 38 17 37 18 32 19 31 20 33 21
REMARK SMILES IDX 30 22 34 23 35 24 36 26 39 27 40 28 41 29 23 30 29 31 24 32
REMARK SMILES IDX 28 33 25 34 26 35 27 37 16 38 14 39 15 40 12 41 13 42 11 43
REMARK SMILES IDX 9 44 10 45 6 46 4 47 5 48 2 49 3 50 1 51 7 52 8 53
REMARK H PARENT
REMARK Flexibility Score: 80.00
ROOT
ATOM      1  C   UNL     1       2.248  32.911  14.484  1.00  0.00     0.037 C 
ENDROOT
BRANCH   1   2
ATOM      2  C   UNL     1       1.393  32.199  15.537  1.00  0.00     0.120 C 
ATOM      3  O   UNL     1       1.233  32.695  16.651  1.00  0.00    -0.377 OA
BRANCH   2   4
ATOM      4  N   UNL     1       0.891  31.016  15.188  1.00  0.00    -0.273 NA
ATOM      5  C   UNL     1       1.788  30.085  14.486  1.00  0.00    -0.010 C 
BRANCH   4   6
ATOM      6  C   UNL     1      -0.503  30.690  15.526  1.00  0.00     0.054 C 
BRANCH   6   7
ATOM      7  C   UNL     1      -0.613  29.922  16.846  1.00  0.00     0.124 C 
ATOM      8  O   UNL     1      -1.641  29.935  17.520  1.00  0.00    -0.377 OA
BRANCH   7   9
ATOM      9  N   UNL     1       0.516  29.305  17.186  1.00  0.00    -0.249 NA
ATOM     10  C   UNL     1       1.280  29.562  18.415  1.00  0.00     0.116 C 
ATOM     11  C   UNL     1       1.280  29.562  18.415  1.00  0.00     0.116 C 
ATOM     12  C   UNL     1       0.895  28.555  19.502  1.00  0.00     0.001 C 
ATOM     13  C   UNL     1       2.755  29.396  18.043  1.00  0.00     0.173 C 
ATOM     14  C   UNL     1       2.755  29.396  18.043  1.00  0.00     0.173 C 
ATOM     15  N   UNL     1       3.469  30.517  18.012  1.00  0.00    -0.232 NA
ATOM     16  O   UNL     1       3.208  28.286  17.766  1.00  0.00    -0.330 OA
BRANCH  15  17
ATOM     17  C   UNL     1       4.896  30.555  17.654  1.00  0.00     0.066 C 
BRANCH  17  18
ATOM     18  C   UNL     1       5.143  31.594  16.555  1.00  0.00    -0.030 C 
BRANCH  18  19
ATOM     19  C   UNL     1       5.491  30.980  15.196  1.00  0.00    -0.039 C 
ATOM     20  C   UNL     1       5.713  31.787  14.086  1.00  0.00    -0.045 C 
ATOM     21  C   UNL     1       5.607  29.597  15.065  1.00  0.00    -0.048 C 
ATOM     22  C   UNL     1       6.054  31.243  12.851  1.00  0.00    -0.010 C
ATOM     23  C   UNL     1       5.943  29.043  13.834  1.00  0.00    -0.026 C 
ATOM     24  C   UNL     1       6.167  29.858  12.727  1.00  0.00     0.057 C 
ATOM     25  C   UNL     1       6.368  32.114  11.812  1.00  0.00     0.000 C
ATOM     26  O   UNL     1       6.508  29.297  11.538  1.00  0.00    -0.393 OA
ENDBRANCH  18  19
ENDBRANCH  17  18
BRANCH  17  27
ATOM     27  C   UNL     1       5.767  30.882  18.869  1.00  0.00     0.167 C 
ATOM     28  O   UNL     1       6.594  31.790  18.808  1.00  0.00    -0.367 OA
ATOM     29  O   UNL     1       5.647  30.244  19.914  1.00  0.00    -0.367 OA
ENDBRANCH  17  27
ENDBRANCH  15  17
ENDBRANCH   7   9
ENDBRANCH   6   7
BRANCH   6  30
ATOM     30  C   UNL     1      -1.109  29.838  14.406  1.00  0.00    -0.021 C 
ATOM     31  C   UNL     1      -1.569  30.455  13.246  1.00  0.00    -0.043 C 
ATOM     32  C   UNL     1      -1.222  28.458  14.537  1.00  0.00    -0.046 C 
ATOM     33  C   UNL     1      -2.136  29.720  12.208  1.00  0.00    -0.010 C
ATOM     34  C   UNL     1      -1.799  27.716  13.508  1.00  0.00    -0.026 C 
ATOM     35  C   UNL     1      -2.257  28.338  12.350  1.00  0.00     0.057 C 
ATOM     36  C   UNL     1      -2.507  30.398  11.052  1.00  0.00     0.000 C
ATOM     37  O   UNL     1      -2.816  27.587  11.363  1.00  0.00    -0.393 OA
ENDBRANCH   6  30
ENDBRANCH   4   6
ENDBRANCH   2   4
ENDBRANCH   1   2
BRANCH   1  38
ATOM     38  N   UNL     1       1.505  33.958  13.767  1.00  0.00    -0.287 NA
BRANCH  38  39
ATOM     39  C   UNL     1       1.303  35.161  14.291  1.00  0.00     0.120 C 
ATOM     40  O   UNL     1       2.138  35.757  14.971  1.00  0.00    -0.377 OA
BRANCH  39  41
ATOM     41  C   UNL     1      -0.056  35.801  14.005  1.00  0.00     0.046 C 
ATOM     42  C   UNL     1      -0.272  35.917  12.494  1.00  0.00    -0.046 C 
BRANCH  41  43
ATOM     43  N   UNL     1      -1.063  34.913  14.606  1.00  0.00    -0.284 NA
BRANCH  43  44
ATOM     44  C   UNL     1      -2.144  35.368  15.236  1.00  0.00     0.123 C 
ATOM     45  O   UNL     1      -2.663  36.463  15.017  1.00  0.00    -0.377 OA
BRANCH  44  46
ATOM     46  C   UNL     1      -2.729  34.407  16.275  1.00  0.00     0.074 C 
BRANCH  46  47
ATOM     47  N   UNL     1      -4.198  34.315  16.218  1.00  0.00    -0.273 NA
ATOM     48  C   UNL     1      -5.111  35.320  16.790  1.00  0.00    -0.010 C 
BRANCH  47  49
ATOM     49  C   UNL     1      -4.750  33.249  15.643  1.00  0.00     0.104 C 
ATOM     50  O   UNL     1      -5.886  33.260  15.166  1.00  0.00    -0.379 OA
ATOM     51  C   UNL     1      -3.910  31.969  15.577  1.00  0.00    -0.025 C 
ENDBRANCH  47  49
ENDBRANCH  46  47
BRANCH  46  52
ATOM     52  C   UNL     1      -2.294  34.856  17.672  1.00  0.00     0.063 C 
ATOM     53  O   UNL     1      -2.508  33.798  18.611  1.00  0.00    -0.395 OA
ENDBRANCH  46  52
ENDBRANCH  44  46
ENDBRANCH  43  44
ENDBRANCH  41  43
ENDBRANCH  39  41
ENDBRANCH  38  39
ENDBRANCH   1  38
TORSDOF 13
ENDMDL
MODEL 17
REMARK VINA RESULT:    -6.665      2.667      5.373
REMARK INTER + INTRA:         -18.436
REMARK INTER:                 -15.207
REMARK INTRA:                  -3.229
REMARK UNBOUND:                -4.367
REMARK SMILES CC(O)N(C)[C@H](CO)C(O)N[C@H](C)C(O)NCC(O)N(C)[C@H]1C2CCC(O)C(C2)[C@@H]2CC(CCC2O)C[C@@H](C(O)O)N2C34OC25[C@]32C[C@]45N2C1O
REMARK SMILES IDX 17 1 18 2 19 3 20 4 21 5 22 6 50 7 51 8 49 9 46 10 48 11
REMARK SMILES IDX 47 12 43 13 45 14 42 15 44 16 38 17 37 18 32 19 31 20 33 21
REMARK SMILES IDX 30 22 34 23 35 24 36 26 39 27 40 28 41 29 23 30 29 31 24 32
REMARK SMILES IDX 28 33 25 34 26 35 27 37 16 38 14 39 15 40 12 41 13 42 11 43
REMARK SMILES IDX 9 44 10 45 6 46 4 47 5 48 2 49 3 50 1 51 7 52 8 53
REMARK H PARENT
REMARK Flexibility Score: 80.00
ROOT
ATOM      1  C   UNL     1      -3.620  33.176  16.178  1.00  0.00     0.037 C 
ENDROOT
BRANCH   1   2
ATOM      2  C   UNL     1      -2.573  33.114  17.294  1.00  0.00     0.120 C 
ATOM      3  O   UNL     1      -2.793  33.633  18.386  1.00  0.00    -0.377 OA
BRANCH   2   4
ATOM      4  N   UNL     1      -1.421  32.519  16.989  1.00  0.00    -0.273 NA
ATOM      5  C   UNL     1      -0.209  33.354  17.001  1.00  0.00    -0.010 C 
BRANCH   4   6
ATOM      6  C   UNL     1      -1.406  31.082  16.677  1.00  0.00     0.054 C 
BRANCH   6   7
ATOM      7  C   UNL     1      -1.171  30.223  17.923  1.00  0.00     0.124 C 
ATOM      8  O   UNL     1      -1.781  30.423  18.972  1.00  0.00    -0.377 OA
BRANCH   7   9
ATOM      9  N   UNL     1      -0.226  29.303  17.752  1.00  0.00    -0.249 NA
ATOM     10  C   UNL     1       0.351  28.477  18.823  1.00  0.00     0.116 C 
ATOM     11  C   UNL     1       0.351  28.477  18.823  1.00  0.00     0.116 C 
ATOM     12  C   UNL     1      -0.364  27.125  18.896  1.00  0.00     0.001 C 
ATOM     13  C   UNL     1       1.824  28.275  18.460  1.00  0.00     0.173 C 
ATOM     14  C   UNL     1       1.824  28.275  18.460  1.00  0.00     0.173 C 
ATOM     15  N   UNL     1       2.698  28.918  19.228  1.00  0.00    -0.232 NA
ATOM     16  O   UNL     1       2.139  27.581  17.494  1.00  0.00    -0.330 OA
BRANCH  15  17
ATOM     17  C   UNL     1       4.153  28.860  19.016  1.00  0.00     0.066 C 
BRANCH  17  18
ATOM     18  C   UNL     1       4.718  30.269  18.801  1.00  0.00    -0.030 C 
BRANCH  18  19
ATOM     19  C   UNL     1       5.057  30.577  17.339  1.00  0.00    -0.039 C 
ATOM     20  C   UNL     1       5.373  29.555  16.451  1.00  0.00    -0.045 C 
ATOM     21  C   UNL     1       5.033  31.893  16.881  1.00  0.00    -0.048 C 
ATOM     22  C   UNL     1       5.659  29.819  15.114  1.00  0.00    -0.010 C
ATOM     23  C   UNL     1       5.321  32.169  15.548  1.00  0.00    -0.026 C 
ATOM     24  C   UNL     1       5.634  31.139  14.664  1.00  0.00     0.057 C 
ATOM     25  C   UNL     1       5.860  28.741  14.259  1.00  0.00     0.000 C
ATOM     26  O   UNL     1       5.898  31.429  13.363  1.00  0.00    -0.393 OA
ENDBRANCH  18  19
ENDBRANCH  17  18
BRANCH  17  27
ATOM     27  C   UNL     1       4.863  28.203  20.201  1.00  0.00     0.167 C 
ATOM     28  O   UNL     1       5.819  28.763  20.735  1.00  0.00    -0.367 OA
ATOM     29  O   UNL     1       4.485  27.114  20.631  1.00  0.00    -0.367 OA
ENDBRANCH  17  27
ENDBRANCH  15  17
ENDBRANCH   7   9
ENDBRANCH   6   7
BRANCH   6  30
ATOM     30  C   UNL     1      -0.294  30.796  15.663  1.00  0.00    -0.021 C 
ATOM     31  C   UNL     1      -0.627  30.385  14.376  1.00  0.00    -0.043 C 
ATOM     32  C   UNL     1       1.047  30.926  16.013  1.00  0.00    -0.046 C 
ATOM     33  C   UNL     1       0.351  30.105  13.426  1.00  0.00    -0.010 C
ATOM     34  C   UNL     1       2.033  30.637  15.073  1.00  0.00    -0.026 C 
ATOM     35  C   UNL     1       1.694  30.226  13.787  1.00  0.00     0.057 C 
ATOM     36  C   UNL     1      -0.059  29.767  12.141  1.00  0.00     0.000 C
ATOM     37  O   UNL     1       2.679  29.949  12.890  1.00  0.00    -0.393 OA
ENDBRANCH   6  30
ENDBRANCH   4   6
ENDBRANCH   2   4
ENDBRANCH   1   2
BRANCH   1  38
ATOM     38  N   UNL     1      -4.161  34.530  15.986  1.00  0.00    -0.287 NA
BRANCH  38  39
ATOM     39  C   UNL     1      -3.658  35.367  15.085  1.00  0.00     0.120 C 
ATOM     40  O   UNL     1      -3.765  35.204  13.870  1.00  0.00    -0.377 OA
BRANCH  39  41
ATOM     41  C   UNL     1      -2.916  36.584  15.637  1.00  0.00     0.046 C 
ATOM     42  C   UNL     1      -3.428  36.917  17.041  1.00  0.00    -0.046 C 
BRANCH  41  43
ATOM     43  N   UNL     1      -1.493  36.214  15.678  1.00  0.00    -0.284 NA
BRANCH  43  44
ATOM     44  C   UNL     1      -0.512  37.114  15.673  1.00  0.00     0.123 C 
ATOM     45  O   UNL     1      -0.466  38.092  16.418  1.00  0.00    -0.377 OA
BRANCH  44  46
ATOM     46  C   UNL     1       0.600  36.839  14.657  1.00  0.00     0.074 C 
BRANCH  46  47
ATOM     47  N   UNL     1       0.639  37.820  13.560  1.00  0.00    -0.273 NA
ATOM     48  C   UNL     1      -0.385  37.922  12.506  1.00  0.00    -0.010 C 
BRANCH  47  49
ATOM     49  C   UNL     1       1.675  38.654  13.484  1.00  0.00     0.104 C 
ATOM     50  O   UNL     1       1.718  39.722  14.095  1.00  0.00    -0.379 OA
ATOM     51  C   UNL     1       2.854  38.235  12.600  1.00  0.00    -0.025 C 
ENDBRANCH  47  49
ENDBRANCH  46  47
BRANCH  46  52
ATOM     52  C   UNL     1       0.416  35.431  14.084  1.00  0.00     0.063 C 
ATOM     53  O   UNL     1       1.687  34.788  13.955  1.00  0.00    -0.395 OA
ENDBRANCH  46  52
ENDBRANCH  44  46
ENDBRANCH  43  44
ENDBRANCH  41  43
ENDBRANCH  39  41
ENDBRANCH  38  39
ENDBRANCH   1  38
TORSDOF 13
ENDMDL
MODEL 18
REMARK VINA RESULT:    -6.554      4.378      9.329
REMARK INTER + INTRA:         -18.201
REMARK INTER:                 -15.516
REMARK INTRA:                  -2.685
REMARK UNBOUND:                -4.367
REMARK SMILES CC(O)N(C)[C@H](CO)C(O)N[C@H](C)C(O)NCC(O)N(C)[C@H]1C2CCC(O)C(C2)[C@@H]2CC(CCC2O)C[C@@H](C(O)O)N2C34OC25[C@]32C[C@]45N2C1O
REMARK SMILES IDX 17 1 18 2 19 3 20 4 21 5 22 6 50 7 51 8 49 9 46 10 48 11
REMARK SMILES IDX 47 12 43 13 45 14 42 15 44 16 38 17 37 18 32 19 31 20 33 21
REMARK SMILES IDX 30 22 34 23 35 24 36 26 39 27 40 28 41 29 23 30 29 31 24 32
REMARK SMILES IDX 28 33 25 34 26 35 27 37 16 38 14 39 15 40 12 41 13 42 11 43
REMARK SMILES IDX 9 44 10 45 6 46 4 47 5 48 2 49 3 50 1 51 7 52 8 53
REMARK H PARENT
REMARK Flexibility Score: 80.00
ROOT
ATOM      1  C   UNL     1       1.352  43.978  11.637  1.00  0.00     0.037 C 
ENDROOT
BRANCH   1   2
ATOM      2  C   UNL     1       0.736  42.834  12.447  1.00  0.00     0.120 C 
ATOM      3  O   UNL     1       0.104  43.066  13.476  1.00  0.00    -0.377 OA
BRANCH   2   4
ATOM      4  N   UNL     1       0.969  41.602  12.000  1.00  0.00    -0.273 NA
ATOM      5  C   UNL     1       2.369  41.146  11.980  1.00  0.00    -0.010 C 
BRANCH   4   6
ATOM      6  C   UNL     1      -0.157  40.760  11.568  1.00  0.00     0.054 C 
BRANCH   6   7
ATOM      7  C   UNL     1       0.139  39.267  11.737  1.00  0.00     0.124 C 
ATOM      8  O   UNL     1       0.234  38.511  10.772  1.00  0.00    -0.377 OA
BRANCH   7   9
ATOM      9  N   UNL     1       0.228  38.894  13.011  1.00  0.00    -0.249 NA
ATOM     10  C   UNL     1       0.973  37.724  13.498  1.00  0.00     0.116 C 
ATOM     11  C   UNL     1       0.973  37.724  13.498  1.00  0.00     0.116 C 
ATOM     12  C   UNL     1       2.372  38.139  13.959  1.00  0.00     0.001 C 
ATOM     13  C   UNL     1       0.173  37.168  14.678  1.00  0.00     0.173 C 
ATOM     14  C   UNL     1       0.173  37.168  14.678  1.00  0.00     0.173 C 
ATOM     15  N   UNL     1      -0.439  36.008  14.461  1.00  0.00    -0.232 NA
ATOM     16  O   UNL     1       0.098  37.798  15.732  1.00  0.00    -0.330 OA
BRANCH  15  17
ATOM     17  C   UNL     1      -1.270  35.334  15.471  1.00  0.00     0.066 C 
BRANCH  17  18
ATOM     18  C   UNL     1      -2.594  34.872  14.852  1.00  0.00    -0.030 C 
BRANCH  18  19
ATOM     19  C   UNL     1      -3.727  35.892  14.996  1.00  0.00    -0.039 C 
ATOM     20  C   UNL     1      -3.966  36.836  14.003  1.00  0.00    -0.045 C 
ATOM     21  C   UNL     1      -4.547  35.869  16.123  1.00  0.00    -0.048 C 
ATOM     22  C   UNL     1      -5.009  37.752  14.109  1.00  0.00    -0.010 C
ATOM     23  C   UNL     1      -5.590  36.783  16.241  1.00  0.00    -0.026 C 
ATOM     24  C   UNL     1      -5.824  37.723  15.241  1.00  0.00     0.057 C 
ATOM     25  C   UNL     1      -5.257  38.595  13.031  1.00  0.00     0.000 C
ATOM     26  O   UNL     1      -6.856  38.597  15.370  1.00  0.00    -0.393 OA
ENDBRANCH  18  19
ENDBRANCH  17  18
BRANCH  17  27
ATOM     27  C   UNL     1      -0.544  34.130  16.076  1.00  0.00     0.167 C 
ATOM     28  O   UNL     1       0.297  33.522  15.416  1.00  0.00    -0.367 OA
ATOM     29  O   UNL     1      -0.792  33.762  17.224  1.00  0.00    -0.367 OA
ENDBRANCH  17  27
ENDBRANCH  15  17
ENDBRANCH   7   9
ENDBRANCH   6   7
BRANCH   6  30
ATOM     30  C   UNL     1      -0.462  41.040  10.093  1.00  0.00    -0.021 C 
ATOM     31  C   UNL     1      -1.785  41.112   9.667  1.00  0.00    -0.043 C 
ATOM     32  C   UNL     1       0.563  41.207   9.168  1.00  0.00    -0.046 C 
ATOM     33  C   UNL     1      -2.107  41.355   8.335  1.00  0.00    -0.010 C
ATOM     34  C   UNL     1       0.251  41.438   7.830  1.00  0.00    -0.026 C 
ATOM     35  C   UNL     1      -1.074  41.510   7.410  1.00  0.00     0.057 C 
ATOM     36  C   UNL     1      -3.450  41.484   7.997  1.00  0.00     0.000 C
ATOM     37  O   UNL     1      -1.349  41.736   6.097  1.00  0.00    -0.393 OA
ENDBRANCH   6  30
ENDBRANCH   4   6
ENDBRANCH   2   4
ENDBRANCH   1   2
BRANCH   1  38
ATOM     38  N   UNL     1       0.340  44.906  11.110  1.00  0.00    -0.287 NA
BRANCH  38  39
ATOM     39  C   UNL     1       0.124  46.096  11.658  1.00  0.00     0.120 C 
ATOM     40  O   UNL     1      -0.291  46.252  12.806  1.00  0.00    -0.377 OA
BRANCH  39  41
ATOM     41  C   UNL     1       0.424  47.308  10.776  1.00  0.00     0.046 C 
ATOM     42  C   UNL     1       1.885  47.732  10.948  1.00  0.00    -0.046 C 
BRANCH  41  43
ATOM     43  N   UNL     1       0.168  46.882   9.391  1.00  0.00    -0.284 NA
BRANCH  43  44
ATOM     44  C   UNL     1      -0.739  47.467   8.611  1.00  0.00     0.123 C 
ATOM     45  O   UNL     1      -1.554  48.300   9.003  1.00  0.00    -0.377 OA
BRANCH  44  46
ATOM     46  C   UNL     1      -0.692  47.032   7.143  1.00  0.00     0.074 C 
BRANCH  46  47
ATOM     47  N   UNL     1      -1.718  47.684   6.312  1.00  0.00    -0.273 NA
ATOM     48  C   UNL     1      -3.114  47.225   6.211  1.00  0.00    -0.010 C 
BRANCH  47  49
ATOM     49  C   UNL     1      -1.370  48.738   5.576  1.00  0.00     0.104 C 
ATOM     50  O   UNL     1      -0.949  49.787   6.068  1.00  0.00    -0.379 OA
ATOM     51  C   UNL     1      -1.498  48.609   4.055  1.00  0.00    -0.025 C 
ENDBRANCH  47  49
ENDBRANCH  46  47
BRANCH  46  52
ATOM     52  C   UNL     1      -0.857  45.512   7.067  1.00  0.00     0.063 C 
ATOM     53  O   UNL     1       0.215  44.944   6.309  1.00  0.00    -0.395 OA
ENDBRANCH  46  52
ENDBRANCH  44  46
ENDBRANCH  43  44
ENDBRANCH  41  43
ENDBRANCH  39  41
ENDBRANCH  38  39
ENDBRANCH   1  38
TORSDOF 13
ENDMDL
MODEL 19
REMARK VINA RESULT:    -6.522      2.317     10.117
REMARK INTER + INTRA:         -18.134
REMARK INTER:                 -14.683
REMARK INTRA:                  -3.450
REMARK UNBOUND:                -4.367
REMARK SMILES CC(O)N(C)[C@H](CO)C(O)N[C@H](C)C(O)NCC(O)N(C)[C@H]1C2CCC(O)C(C2)[C@@H]2CC(CCC2O)C[C@@H](C(O)O)N2C34OC25[C@]32C[C@]45N2C1O
REMARK SMILES IDX 17 1 18 2 19 3 20 4 21 5 22 6 50 7 51 8 49 9 46 10 48 11
REMARK SMILES IDX 47 12 43 13 45 14 42 15 44 16 38 17 37 18 32 19 31 20 33 21
REMARK SMILES IDX 30 22 34 23 35 24 36 26 39 27 40 28 41 29 23 30 29 31 24 32
REMARK SMILES IDX 28 33 25 34 26 35 27 37 16 38 14 39 15 40 12 41 13 42 11 43
REMARK SMILES IDX 9 44 10 45 6 46 4 47 5 48 2 49 3 50 1 51 7 52 8 53
REMARK H PARENT
REMARK Flexibility Score: 80.00
ROOT
ATOM      1  C   UNL     1      -1.288  33.569  16.084  1.00  0.00     0.037 C 
ENDROOT
BRANCH   1   2
ATOM      2  C   UNL     1      -1.528  33.754  14.583  1.00  0.00     0.120 C 
ATOM      3  O   UNL     1      -1.340  32.825  13.801  1.00  0.00    -0.377 OA
BRANCH   2   4
ATOM      4  N   UNL     1      -1.897  34.973  14.190  1.00  0.00    -0.273 NA
ATOM      5  C   UNL     1      -3.201  35.466  14.660  1.00  0.00    -0.010 C 
BRANCH   4   6
ATOM      6  C   UNL     1      -0.998  35.763  13.335  1.00  0.00     0.054 C 
BRANCH   6   7
ATOM      7  C   UNL     1      -0.200  36.795  14.136  1.00  0.00     0.124 C 
ATOM      8  O   UNL     1      -0.468  37.057  15.307  1.00  0.00    -0.377 OA
BRANCH   7   9
ATOM      9  N   UNL     1       0.752  37.389  13.420  1.00  0.00    -0.249 NA
ATOM     10  C   UNL     1       1.604  38.488  13.896  1.00  0.00     0.116 C 
ATOM     11  C   UNL     1       1.604  38.488  13.896  1.00  0.00     0.116 C 
ATOM     12  C   UNL     1       2.931  37.939  14.427  1.00  0.00     0.001 C 
ATOM     13  C   UNL     1       1.855  39.390  12.685  1.00  0.00     0.173 C 
ATOM     14  C   UNL     1       1.855  39.390  12.685  1.00  0.00     0.173 C 
ATOM     15  N   UNL     1       1.248  40.572  12.715  1.00  0.00    -0.232 NA
ATOM     16  O   UNL     1       2.552  38.999  11.750  1.00  0.00    -0.330 OA
BRANCH  15  17
ATOM     17  C   UNL     1       1.355  41.561  11.630  1.00  0.00     0.066 C 
BRANCH  17  18
ATOM     18  C   UNL     1      -0.038  41.939  11.114  1.00  0.00    -0.030 C 
BRANCH  18  19
ATOM     19  C   UNL     1      -0.424  41.228   9.813  1.00  0.00    -0.039 C 
ATOM     20  C   UNL     1       0.393  40.242   9.270  1.00  0.00    -0.045 C 
ATOM     21  C   UNL     1      -1.616  41.553   9.168  1.00  0.00    -0.048 C 
ATOM     22  C   UNL     1       0.042  39.571   8.103  1.00  0.00    -0.010 C
ATOM     23  C   UNL     1      -1.975  40.891   7.997  1.00  0.00    -0.026 C 
ATOM     24  C   UNL     1      -1.152  39.903   7.463  1.00  0.00     0.057 C 
ATOM     25  C   UNL     1       0.852  38.523   7.677  1.00  0.00     0.000 C
ATOM     26  O   UNL     1      -1.528  39.259   6.327  1.00  0.00    -0.393 OA
ENDBRANCH  18  19
ENDBRANCH  17  18
BRANCH  17  27
ATOM     27  C   UNL     1       2.085  42.822  12.096  1.00  0.00     0.167 C 
ATOM     28  O   UNL     1       3.123  42.728  12.749  1.00  0.00    -0.367 OA
ATOM     29  O   UNL     1       1.644  43.937  11.822  1.00  0.00    -0.367 OA
ENDBRANCH  17  27
ENDBRANCH  15  17
ENDBRANCH   7   9
ENDBRANCH   6   7
BRANCH   6  30
ATOM     30  C   UNL     1      -1.824  36.493  12.271  1.00  0.00    -0.021 C 
ATOM     31  C   UNL     1      -1.634  36.190  10.926  1.00  0.00    -0.043 C 
ATOM     32  C   UNL     1      -2.751  37.468  12.627  1.00  0.00    -0.046 C 
ATOM     33  C   UNL     1      -2.355  36.836   9.926  1.00  0.00    -0.010 C
ATOM     34  C   UNL     1      -3.469  38.128  11.633  1.00  0.00    -0.026 C 
ATOM     35  C   UNL     1      -3.275  37.820  10.289  1.00  0.00     0.057 C 
ATOM     36  C   UNL     1      -2.162  36.429   8.610  1.00  0.00     0.000 C
ATOM     37  O   UNL     1      -3.990  38.483   9.340  1.00  0.00    -0.393 OA
ENDBRANCH   6  30
ENDBRANCH   4   6
ENDBRANCH   2   4
ENDBRANCH   1   2
BRANCH   1  38
ATOM     38  N   UNL     1       0.110  33.822  16.467  1.00  0.00    -0.287 NA
BRANCH  38  39
ATOM     39  C   UNL     1       1.016  32.850  16.500  1.00  0.00     0.120 C 
ATOM     40  O   UNL     1       0.962  31.895  17.274  1.00  0.00    -0.377 OA
BRANCH  39  41
ATOM     41  C   UNL     1       2.166  32.968  15.499  1.00  0.00     0.046 C 
ATOM     42  C   UNL     1       2.184  34.370  14.886  1.00  0.00    -0.046 C 
BRANCH  41  43
ATOM     43  N   UNL     1       3.399  32.719  16.261  1.00  0.00    -0.284 NA
BRANCH  43  44
ATOM     44  C   UNL     1       4.467  32.123  15.733  1.00  0.00     0.123 C 
ATOM     45  O   UNL     1       4.774  32.183  14.543  1.00  0.00    -0.377 OA
BRANCH  44  46
ATOM     46  C   UNL     1       5.324  31.346  16.736  1.00  0.00     0.074 C 
BRANCH  46  47
ATOM     47  N   UNL     1       4.865  29.961  16.940  1.00  0.00    -0.273 NA
ATOM     48  C   UNL     1       3.539  29.600  17.469  1.00  0.00    -0.010 C 
BRANCH  47  49
ATOM     49  C   UNL     1       5.702  28.963  16.662  1.00  0.00     0.104 C 
ATOM     50  O   UNL     1       6.428  28.444  17.511  1.00  0.00    -0.379 OA
ATOM     51  C   UNL     1       5.733  28.451  15.219  1.00  0.00    -0.025 C 
ENDBRANCH  47  49
ENDBRANCH  46  47
BRANCH  46  52
ATOM     52  C   UNL     1       5.326  32.090  18.074  1.00  0.00     0.063 C 
ATOM     53  O   UNL     1       6.505  31.759  18.813  1.00  0.00    -0.395 OA
ENDBRANCH  46  52
ENDBRANCH  44  46
ENDBRANCH  43  44
ENDBRANCH  41  43
ENDBRANCH  39  41
ENDBRANCH  38  39
ENDBRANCH   1  38
TORSDOF 13
ENDMDL
MODEL 20
REMARK VINA RESULT:    -6.458      2.756      5.347
REMARK INTER + INTRA:         -17.999
REMARK INTER:                 -13.632
REMARK INTRA:                  -4.367
REMARK UNBOUND:                -4.367
REMARK SMILES CC(O)N(C)[C@H](CO)C(O)N[C@H](C)C(O)NCC(O)N(C)[C@H]1C2CCC(O)C(C2)[C@@H]2CC(CCC2O)C[C@@H](C(O)O)N2C34OC25[C@]32C[C@]45N2C1O
REMARK SMILES IDX 17 1 18 2 19 3 20 4 21 5 22 6 50 7 51 8 49 9 46 10 48 11
REMARK SMILES IDX 47 12 43 13 45 14 42 15 44 16 38 17 37 18 32 19 31 20 33 21
REMARK SMILES IDX 30 22 34 23 35 24 36 26 39 27 40 28 41 29 23 30 29 31 24 32
REMARK SMILES IDX 28 33 25 34 26 35 27 37 16 38 14 39 15 40 12 41 13 42 11 43
REMARK SMILES IDX 9 44 10 45 6 46 4 47 5 48 2 49 3 50 1 51 7 52 8 53
REMARK H PARENT
REMARK Flexibility Score: 80.00
ROOT
ATOM      1  C   UNL     1      -4.538  32.457  15.003  1.00  0.00     0.037 C 
ENDROOT
BRANCH   1   2
ATOM      2  C   UNL     1      -3.595  31.284  15.286  1.00  0.00     0.120 C 
ATOM      3  O   UNL     1      -3.938  30.375  16.040  1.00  0.00    -0.377 OA
BRANCH   2   4
ATOM      4  N   UNL     1      -2.394  31.340  14.714  1.00  0.00    -0.273 NA
ATOM      5  C   UNL     1      -2.191  32.362  13.674  1.00  0.00    -0.010 C 
BRANCH   4   6
ATOM      6  C   UNL     1      -1.339  30.411  15.146  1.00  0.00     0.054 C 
BRANCH   6   7
ATOM      7  C   UNL     1      -0.654  30.875  16.435  1.00  0.00     0.124 C 
ATOM      8  O   UNL     1      -1.014  31.888  17.032  1.00  0.00    -0.377 OA
BRANCH   7   9
ATOM      9  N   UNL     1       0.372  30.104  16.787  1.00  0.00    -0.249 NA
ATOM     10  C   UNL     1       1.129  30.229  18.041  1.00  0.00     0.116 C 
ATOM     11  C   UNL     1       1.129  30.229  18.041  1.00  0.00     0.116 C 
ATOM     12  C   UNL     1       0.581  29.258  19.091  1.00  0.00     0.001 C 
ATOM     13  C   UNL     1       2.578  29.875  17.702  1.00  0.00     0.173 C 
ATOM     14  C   UNL     1       2.578  29.875  17.702  1.00  0.00     0.173 C 
ATOM     15  N   UNL     1       3.436  30.890  17.718  1.00  0.00    -0.232 NA
ATOM     16  O   UNL     1       2.886  28.721  17.407  1.00  0.00    -0.330 OA
BRANCH  15  17
ATOM     17  C   UNL     1       4.865  30.744  17.397  1.00  0.00     0.066 C 
BRANCH  17  18
ATOM     18  C   UNL     1       5.267  31.729  16.294  1.00  0.00    -0.030 C 
BRANCH  18  19
ATOM     19  C   UNL     1       5.408  31.080  14.913  1.00  0.00    -0.039 C 
ATOM     20  C   UNL     1       5.856  31.817  13.823  1.00  0.00    -0.045 C 
ATOM     21  C   UNL     1       5.106  29.730  14.743  1.00  0.00    -0.048 C 
ATOM     22  C   UNL     1       6.013  31.234  12.569  1.00  0.00    -0.010 C
ATOM     23  C   UNL     1       5.255  29.138  13.493  1.00  0.00    -0.026 C 
ATOM     24  C   UNL     1       5.707  29.883  12.406  1.00  0.00     0.057 C 
ATOM     25  C   UNL     1       6.567  32.002  11.550  1.00  0.00     0.000 C
ATOM     26  O   UNL     1       5.859  29.281  11.198  1.00  0.00    -0.393 OA
ENDBRANCH  18  19
ENDBRANCH  17  18
BRANCH  17  27
ATOM     27  C   UNL     1       5.740  30.977  18.631  1.00  0.00     0.167 C 
ATOM     28  O   UNL     1       5.660  30.217  19.595  1.00  0.00    -0.367 OA
ATOM     29  O   UNL     1       6.528  31.920  18.670  1.00  0.00    -0.367 OA
ENDBRANCH  17  27
ENDBRANCH  15  17
ENDBRANCH   7   9
ENDBRANCH   6   7
BRANCH   6  30
ATOM     30  C   UNL     1      -0.284  30.293  14.041  1.00  0.00    -0.021 C 
ATOM     31  C   UNL     1       0.654  31.308  13.874  1.00  0.00    -0.043 C 
ATOM     32  C   UNL     1      -0.260  29.194  13.188  1.00  0.00    -0.046 C 
ATOM     33  C   UNL     1       1.622  31.246  12.877  1.00  0.00    -0.010 C
ATOM     34  C   UNL     1       0.698  29.128  12.179  1.00  0.00    -0.026 C 
ATOM     35  C   UNL     1       1.634  30.146  12.018  1.00  0.00     0.057 C 
ATOM     36  C   UNL     1       2.569  32.263  12.817  1.00  0.00     0.000 C
ATOM     37  O   UNL     1       2.558  30.055  11.023  1.00  0.00    -0.393 OA
ENDBRANCH   6  30
ENDBRANCH   4   6
ENDBRANCH   2   4
ENDBRANCH   1   2
BRANCH   1  38
ATOM     38  N   UNL     1      -4.735  33.319  16.179  1.00  0.00    -0.287 NA
BRANCH  38  39
ATOM     39  C   UNL     1      -3.765  34.091  16.655  1.00  0.00     0.120 C 
ATOM     40  O   UNL     1      -3.355  34.035  17.814  1.00  0.00    -0.377 OA
BRANCH  39  41
ATOM     41  C   UNL     1      -3.153  35.087  15.669  1.00  0.00     0.046 C 
ATOM     42  C   UNL     1      -4.119  36.251  15.434  1.00  0.00    -0.046 C 
BRANCH  41  43
ATOM     43  N   UNL     1      -1.906  35.564  16.287  1.00  0.00    -0.284 NA
BRANCH  43  44
ATOM     44  C   UNL     1      -0.726  35.505  15.673  1.00  0.00     0.123 C 
ATOM     45  O   UNL     1       0.124  34.642  15.890  1.00  0.00    -0.377 OA
BRANCH  44  46
ATOM     46  C   UNL     1      -0.491  36.607  14.637  1.00  0.00     0.074 C 
BRANCH  46  47
ATOM     47  N   UNL     1      -0.552  36.120  13.248  1.00  0.00    -0.273 NA
ATOM     48  C   UNL     1       0.526  35.363  12.590  1.00  0.00    -0.010 C 
BRANCH  47  49
ATOM     49  C   UNL     1      -1.631  36.399  12.520  1.00  0.00     0.104 C 
ATOM     50  O   UNL     1      -2.496  35.562  12.257  1.00  0.00    -0.379 OA
ATOM     51  C   UNL     1      -1.784  37.836  12.008  1.00  0.00    -0.025 C 
ENDBRANCH  47  49
ENDBRANCH  46  47
BRANCH  46  52
ATOM     52  C   UNL     1       0.872  37.255  14.896  1.00  0.00     0.063 C 
ATOM     53  O   UNL     1       0.923  38.543  14.277  1.00  0.00    -0.395 OA
ENDBRANCH  46  52
ENDBRANCH  44  46
ENDBRANCH  43  44
ENDBRANCH  41  43
ENDBRANCH  39  41
ENDBRANCH  38  39
ENDBRANCH   1  38
TORSDOF 13
ENDMDL
