REMARK SMILES CC(O)N(C)[C@H](CO)C(O)N[C@H](C)C(O)NCC(O)N(C)[C@H]1C2CCC(O)C(C2)[C@@H]2CC(CCC2O)C[C@@H](C(O)O)N2C34OC25[C@]32C[C@]45N2C1O
REMARK SMILES IDX 17 1 18 2 19 3 20 4 21 5 22 6 50 7 51 8 49 9 46 10 48 11
REMARK SMILES IDX 47 12 43 13 45 14 42 15 44 16 38 17 37 18 32 19 31 20 33 21
REMARK SMILES IDX 30 22 34 23 35 24 36 26 39 27 40 28 41 29 23 30 29 31 24 32
REMARK SMILES IDX 28 33 25 34 26 35 27 37 16 38 14 39 15 40 12 41 13 42 11 43
REMARK SMILES IDX 9 44 10 45 6 46 4 47 5 48 2 49 3 50 1 51 7 52 8 53
REMARK H PARENT
REMARK Flexibility Score: 80.00
ROOT
ATOM      1  C   UNL     1      -4.119  49.682   6.451  1.00  0.00     0.037 C 
ENDROOT
BRANCH   1   2
ATOM      2  C   UNL     1      -3.665  48.940   7.712  1.00  0.00     0.120 C 
ATOM      3  O   UNL     1      -3.581  49.529   8.787  1.00  0.00    -0.377 OA
BRANCH   2   4
ATOM      4  N   UNL     1      -3.328  47.661   7.555  1.00  0.00    -0.273 NA
ATOM      5  C   UNL     1      -3.132  47.180   6.178  1.00  0.00    -0.010 C 
BRANCH   4   6
ATOM      6  C   UNL     1      -3.155  46.805   8.738  1.00  0.00     0.054 C 
BRANCH   6   7
ATOM      7  C   UNL     1      -1.769  46.155   8.782  1.00  0.00     0.124 C 
ATOM      8  O   UNL     1      -1.105  45.974   7.764  1.00  0.00    -0.377 OA
BRANCH   7   9
ATOM      9  N   UNL     1      -1.408  45.778  10.006  1.00  0.00    -0.249 NA
ATOM     10  C   UNL     1      -0.025  45.736  10.503  1.00  0.00     0.116 C 
ATOM     11  C   UNL     1      -0.025  45.736  10.503  1.00  0.00     0.116 C 
ATOM     12  C   UNL     1       0.308  47.026  11.257  1.00  0.00     0.001 C 
ATOM     13  C   UNL     1       0.052  44.538  11.452  1.00  0.00     0.173 C 
ATOM     14  C   UNL     1       0.052  44.538  11.452  1.00  0.00     0.173 C 
ATOM     15  N   UNL     1       0.755  43.500  11.009  1.00  0.00    -0.232 NA
ATOM     16  O   UNL     1      -0.538  44.558  12.531  1.00  0.00    -0.330 OA
BRANCH  15  17
ATOM     17  C   UNL     1       0.920  42.253  11.773  1.00  0.00     0.066 C 
BRANCH  17  18
ATOM     18  C   UNL     1       1.371  41.116  10.849  1.00  0.00    -0.030 C 
BRANCH  18  19
ATOM     19  C   UNL     1       0.441  40.893   9.653  1.00  0.00    -0.039 C 
ATOM     20  C   UNL     1       0.232  41.899   8.716  1.00  0.00    -0.045 C 
ATOM     21  C   UNL     1      -0.192  39.663   9.481  1.00  0.00    -0.048 C 
ATOM     22  C   UNL     1      -0.591  41.702   7.611  1.00  0.00    -0.010 C
ATOM     23  C   UNL     1      -1.019  39.456   8.382  1.00  0.00    -0.026 C 
ATOM     24  C   UNL     1      -1.221  40.468   7.447  1.00  0.00     0.057 C 
ATOM     25  C   UNL     1      -0.669  42.713   6.659  1.00  0.00     0.000 C
ATOM     26  O   UNL     1      -2.022  40.240   6.374  1.00  0.00    -0.393 OA
ENDBRANCH  18  19
ENDBRANCH  17  18
BRANCH  17  27
ATOM     27  C   UNL     1       1.937  42.424  12.904  1.00  0.00     0.167 C 
ATOM     28  O   UNL     1       1.730  41.911  14.003  1.00  0.00    -0.367 OA
ATOM     29  O   UNL     1       2.968  43.071  12.725  1.00  0.00    -0.367 OA
ENDBRANCH  17  27
ENDBRANCH  15  17
ENDBRANCH   7   9
ENDBRANCH   6   7
BRANCH   6  30
ATOM     30  C   UNL     1      -4.218  45.702   8.726  1.00  0.00    -0.021 C 
ATOM     31  C   UNL     1      -3.881  44.427   8.281  1.00  0.00    -0.043 C 
ATOM     32  C   UNL     1      -5.522  45.959   9.138  1.00  0.00    -0.046 C 
ATOM     33  C   UNL     1      -4.818  43.399   8.243  1.00  0.00    -0.010 C
ATOM     34  C   UNL     1      -6.470  44.940   9.092  1.00  0.00    -0.026 C 
ATOM     35  C   UNL     1      -6.127  43.667   8.647  1.00  0.00     0.057 C 
ATOM     36  C   UNL     1      -4.390  42.135   7.853  1.00  0.00     0.000 C
ATOM     37  O   UNL     1      -7.074  42.691   8.613  1.00  0.00    -0.393 OA
ENDBRANCH   6  30
ENDBRANCH   4   6
ENDBRANCH   2   4
ENDBRANCH   1   2
BRANCH   1  38
ATOM     38  N   UNL     1      -4.832  50.931   6.758  1.00  0.00    -0.287 NA
BRANCH  38  39
ATOM     39  C   UNL     1      -4.187  52.062   7.020  1.00  0.00     0.120 C 
ATOM     40  O   UNL     1      -3.013  52.264   6.710  1.00  0.00    -0.377 OA
BRANCH  39  41
ATOM     41  C   UNL     1      -4.989  53.143   7.746  1.00  0.00     0.046 C 
ATOM     42  C   UNL     1      -4.853  52.966   9.260  1.00  0.00    -0.046 C 
BRANCH  41  43
ATOM     43  N   UNL     1      -4.421  54.431   7.321  1.00  0.00    -0.284 NA
BRANCH  43  44
ATOM     44  C   UNL     1      -4.907  55.134   6.299  1.00  0.00     0.123 C 
ATOM     45  O   UNL     1      -5.905  54.815   5.653  1.00  0.00    -0.377 OA
BRANCH  44  46
ATOM     46  C   UNL     1      -4.129  56.413   5.977  1.00  0.00     0.074 C 
BRANCH  46  47
ATOM     47  N   UNL     1      -5.000  57.557   5.660  1.00  0.00    -0.273 NA
ATOM     48  C   UNL     1      -6.261  57.451   4.907  1.00  0.00    -0.010 C 
BRANCH  47  49
ATOM     49  C   UNL     1      -4.621  58.774   6.044  1.00  0.00     0.104 C 
ATOM     50  O   UNL     1      -3.592  58.982   6.689  1.00  0.00    -0.379 OA
ATOM     51  C   UNL     1      -5.517  59.951   5.643  1.00  0.00    -0.025 C 
ENDBRANCH  47  49
ENDBRANCH  46  47
BRANCH  46  52
ATOM     52  C   UNL     1      -3.186  56.141   4.802  1.00  0.00     0.063 C 
ATOM     53  O   UNL     1      -3.946  55.873   3.621  1.00  0.00    -0.395 OA
ENDBRANCH  46  52
ENDBRANCH  44  46
ENDBRANCH  43  44
ENDBRANCH  41  43
ENDBRANCH  39  41
ENDBRANCH  38  39
ENDBRANCH   1  38
TORSDOF 13
