MODEL 1
REMARK VINA RESULT:    -5.837      0.000      0.000
REMARK INTER + INTRA:          -8.384
REMARK INTER:                  -8.439
REMARK INTRA:                   0.056
REMARK UNBOUND:                -0.158
REMARK SMILES C=CCOC(=O)C1=CS[C@H]2[C@@H]([C@@H](C)OC(C)=O)C(=O)N12
REMARK SMILES IDX 9 1 8 2 7 3 20 4 10 5 11 6 18 7 19 8 5 9 6 10 4 11 3 12 2 13
REMARK SMILES IDX 1 14 12 15 13 16 14 17 15 18 17 19 16 20
REMARK H PARENT
REMARK Flexibility Score: inf
ROOT
ATOM      1  S   UNL     1      66.570  20.214  11.315  1.00  0.00    -0.105 SA
ATOM      2  C   UNL     1      65.679  20.822   9.930  1.00  0.00     0.004 C 
ATOM      3  C   UNL     1      64.981  21.946  10.127  1.00  0.00     0.137 C 
ATOM      4  N   UNL     1      65.005  22.434  11.410  1.00  0.00    -0.291 N 
ATOM      5  C   UNL     1      65.625  21.468  12.335  1.00  0.00     0.102 C 
ATOM      6  C   UNL     1      66.421  22.652  12.940  1.00  0.00     0.106 C 
ATOM      7  C   UNL     1      65.887  23.436  11.730  1.00  0.00     0.238 C 
ATOM      8  O   UNL     1      66.183  24.465  11.170  1.00  0.00    -0.274 OA
ENDROOT
BRANCH   3   9
ATOM      9  C   UNL     1      64.215  22.668   9.077  1.00  0.00     0.355 C 
ATOM     10  O   UNL     1      63.079  23.089   9.233  1.00  0.00    -0.244 OA
BRANCH   9  11
ATOM     11  O   UNL     1      64.950  22.775   7.941  1.00  0.00    -0.457 OA
BRANCH  11  12
ATOM     12  C   UNL     1      64.176  22.646   6.747  1.00  0.00     0.110 C 
BRANCH  12  13
ATOM     13  C   UNL     1      64.332  23.926   5.982  1.00  0.00    -0.054 C 
ATOM     14  C   UNL     1      65.413  24.715   6.029  1.00  0.00    -0.100 C 
ENDBRANCH  12  13
ENDBRANCH  11  12
ENDBRANCH   9  11
ENDBRANCH   3   9
BRANCH   6  15
ATOM     15  C   UNL     1      67.937  22.598  13.079  1.00  0.00     0.113 C 
ATOM     16  C   UNL     1      68.506  24.014  13.138  1.00  0.00    -0.027 C 
BRANCH  15  17
ATOM     17  O   UNL     1      68.219  21.951  14.342  1.00  0.00    -0.462 OA
BRANCH  17  18
ATOM     18  C   UNL     1      68.911  20.794  14.472  1.00  0.00     0.302 C 
ATOM     19  O   UNL     1      69.120  20.081  13.496  1.00  0.00    -0.253 OA
ATOM     20  C   UNL     1      69.424  20.435  15.834  1.00  0.00     0.034 C 
ENDBRANCH  17  18
ENDBRANCH  15  17
ENDBRANCH   6  15
TORSDOF 7
ENDMDL
MODEL 2
REMARK VINA RESULT:    -5.506      3.320      4.887
REMARK INTER + INTRA:          -7.916
REMARK INTER:                  -7.740
REMARK INTRA:                  -0.177
REMARK UNBOUND:                -0.158
REMARK SMILES C=CCOC(=O)C1=CS[C@H]2[C@@H]([C@@H](C)OC(C)=O)C(=O)N12
REMARK SMILES IDX 9 1 8 2 7 3 20 4 10 5 11 6 18 7 19 8 5 9 6 10 4 11 3 12 2 13
REMARK SMILES IDX 1 14 12 15 13 16 14 17 15 18 17 19 16 20
REMARK H PARENT
REMARK Flexibility Score: inf
ROOT
ATOM      1  S   UNL     1      65.313  21.300   6.546  1.00  0.00    -0.105 SA
ATOM      2  C   UNL     1      64.575  22.454   5.448  1.00  0.00     0.004 C 
ATOM      3  C   UNL     1      63.298  22.765   5.693  1.00  0.00     0.137 C 
ATOM      4  N   UNL     1      62.717  22.086   6.734  1.00  0.00    -0.291 N 
ATOM      5  C   UNL     1      63.587  20.993   7.206  1.00  0.00     0.102 C 
ATOM      6  C   UNL     1      63.276  21.454   8.652  1.00  0.00     0.106 C 
ATOM      7  C   UNL     1      62.650  22.680   7.969  1.00  0.00     0.238 C 
ATOM      8  O   UNL     1      62.330  23.792   8.317  1.00  0.00    -0.274 OA
ENDROOT
BRANCH   3   9
ATOM      9  C   UNL     1      62.505  23.769   4.933  1.00  0.00     0.355 C 
ATOM     10  O   UNL     1      61.284  23.812   4.933  1.00  0.00    -0.244 OA
BRANCH   9  11
ATOM     11  O   UNL     1      63.326  24.603   4.246  1.00  0.00    -0.457 OA
BRANCH  11  12
ATOM     12  C   UNL     1      63.005  24.703   2.857  1.00  0.00     0.110 C 
BRANCH  12  13
ATOM     13  C   UNL     1      64.294  24.912   2.122  1.00  0.00    -0.054 C 
ATOM     14  C   UNL     1      65.258  25.762   2.500  1.00  0.00    -0.100 C 
ENDBRANCH  12  13
ENDBRANCH  11  12
ENDBRANCH   9  11
ENDBRANCH   3   9
BRANCH   6  15
ATOM     15  C   UNL     1      64.392  21.747   9.647  1.00  0.00     0.113 C 
ATOM     16  C   UNL     1      63.807  22.333  10.930  1.00  0.00    -0.027 C 
BRANCH  15  17
ATOM     17  O   UNL     1      65.005  20.478   9.975  1.00  0.00    -0.462 OA
BRANCH  17  18
ATOM     18  C   UNL     1      66.310  20.319  10.304  1.00  0.00     0.302 C 
ATOM     19  O   UNL     1      67.142  20.060   9.442  1.00  0.00    -0.253 OA
ATOM     20  C   UNL     1      66.694  20.494  11.743  1.00  0.00     0.034 C 
ENDBRANCH  17  18
ENDBRANCH  15  17
ENDBRANCH   6  15
TORSDOF 7
ENDMDL
MODEL 3
REMARK VINA RESULT:    -5.397      1.752      7.286
REMARK INTER + INTRA:          -7.763
REMARK INTER:                  -8.310
REMARK INTRA:                   0.547
REMARK UNBOUND:                -0.158
REMARK SMILES C=CCOC(=O)C1=CS[C@H]2[C@@H]([C@@H](C)OC(C)=O)C(=O)N12
REMARK SMILES IDX 9 1 8 2 7 3 20 4 10 5 11 6 18 7 19 8 5 9 6 10 4 11 3 12 2 13
REMARK SMILES IDX 1 14 12 15 13 16 14 17 15 18 17 19 16 20
REMARK H PARENT
REMARK Flexibility Score: inf
ROOT
ATOM      1  S   UNL     1      66.434  24.012  11.725  1.00  0.00    -0.105 SA
ATOM      2  C   UNL     1      67.729  23.142  12.530  1.00  0.00     0.004 C 
ATOM      3  C   UNL     1      67.486  21.859  12.817  1.00  0.00     0.137 C 
ATOM      4  N   UNL     1      66.226  21.416  12.501  1.00  0.00    -0.291 N 
ATOM      5  C   UNL     1      65.350  22.536  12.115  1.00  0.00     0.102 C 
ATOM      6  C   UNL     1      64.863  21.666  10.929  1.00  0.00     0.106 C 
ATOM      7  C   UNL     1      66.027  20.742  11.322  1.00  0.00     0.238 C 
ATOM      8  O   UNL     1      66.642  19.851  10.785  1.00  0.00    -0.274 OA
ENDROOT
BRANCH   3   9
ATOM      9  C   UNL     1      68.466  20.923  13.431  1.00  0.00     0.355 C 
ATOM     10  O   UNL     1      68.688  19.798  13.009  1.00  0.00    -0.244 OA
BRANCH   9  11
ATOM     11  O   UNL     1      69.052  21.492  14.514  1.00  0.00    -0.457 OA
BRANCH  11  12
ATOM     12  C   UNL     1      68.868  20.749  15.720  1.00  0.00     0.110 C 
BRANCH  12  13
ATOM     13  C   UNL     1      70.073  19.875  15.887  1.00  0.00    -0.054 C 
ATOM     14  C   UNL     1      70.034  18.578  16.222  1.00  0.00    -0.100 C 
ENDBRANCH  12  13
ENDBRANCH  11  12
ENDBRANCH   9  11
ENDBRANCH   3   9
BRANCH   6  15
ATOM     15  C   UNL     1      64.887  22.191   9.499  1.00  0.00     0.113 C 
ATOM     16  C   UNL     1      64.703  21.036   8.516  1.00  0.00    -0.027 C 
BRANCH  15  17
ATOM     17  O   UNL     1      63.753  23.080   9.360  1.00  0.00    -0.462 OA
BRANCH  17  18
ATOM     18  C   UNL     1      62.741  22.897   8.480  1.00  0.00     0.302 C 
ATOM     19  O   UNL     1      61.707  22.335   8.827  1.00  0.00    -0.253 OA
ATOM     20  C   UNL     1      62.922  23.422   7.087  1.00  0.00     0.034 C 
ENDBRANCH  17  18
ENDBRANCH  15  17
ENDBRANCH   6  15
TORSDOF 7
ENDMDL
MODEL 4
REMARK VINA RESULT:    -5.362      1.776      2.208
REMARK INTER + INTRA:          -7.715
REMARK INTER:                  -7.282
REMARK INTRA:                  -0.433
REMARK UNBOUND:                -0.158
REMARK SMILES C=CCOC(=O)C1=CS[C@H]2[C@@H]([C@@H](C)OC(C)=O)C(=O)N12
REMARK SMILES IDX 9 1 8 2 7 3 20 4 10 5 11 6 18 7 19 8 5 9 6 10 4 11 3 12 2 13
REMARK SMILES IDX 1 14 12 15 13 16 14 17 15 18 17 19 16 20
REMARK H PARENT
REMARK Flexibility Score: inf
ROOT
ATOM      1  S   UNL     1      67.348  20.199  11.593  1.00  0.00    -0.105 SA
ATOM      2  C   UNL     1      66.838  19.957   9.931  1.00  0.00     0.004 C 
ATOM      3  C   UNL     1      65.695  20.552   9.574  1.00  0.00     0.137 C 
ATOM      4  N   UNL     1      65.041  21.219  10.580  1.00  0.00    -0.291 N 
ATOM      5  C   UNL     1      65.650  20.932  11.891  1.00  0.00     0.102 C 
ATOM      6  C   UNL     1      65.563  22.449  12.194  1.00  0.00     0.106 C 
ATOM      7  C   UNL     1      65.206  22.576  10.705  1.00  0.00     0.238 C 
ATOM      8  O   UNL     1      65.191  23.472   9.894  1.00  0.00    -0.274 OA
ENDROOT
BRANCH   3   9
ATOM      9  C   UNL     1      65.118  20.536   8.203  1.00  0.00     0.355 C 
ATOM     10  O   UNL     1      65.728  20.889   7.204  1.00  0.00    -0.244 OA
BRANCH   9  11
ATOM     11  O   UNL     1      63.837  20.091   8.231  1.00  0.00    -0.457 OA
BRANCH  11  12
ATOM     12  C   UNL     1      62.971  20.785   7.330  1.00  0.00     0.110 C 
BRANCH  12  13
ATOM     13  C   UNL     1      62.544  22.047   8.015  1.00  0.00    -0.054 C 
ATOM     14  C   UNL     1      62.694  23.278   7.508  1.00  0.00    -0.100 C 
ENDBRANCH  12  13
ENDBRANCH  11  12
ENDBRANCH   9  11
ENDBRANCH   3   9
BRANCH   6  15
ATOM     15  C   UNL     1      66.783  23.236  12.654  1.00  0.00     0.113 C 
ATOM     16  C   UNL     1      66.414  24.705  12.848  1.00  0.00    -0.027 C 
BRANCH  15  17
ATOM     17  O   UNL     1      67.168  22.699  13.941  1.00  0.00    -0.462 OA
BRANCH  17  18
ATOM     18  C   UNL     1      68.445  22.438  14.312  1.00  0.00     0.302 C 
ATOM     19  O   UNL     1      69.335  23.253  14.094  1.00  0.00    -0.253 OA
ATOM     20  C   UNL     1      68.719  21.139  15.008  1.00  0.00     0.034 C 
ENDBRANCH  17  18
ENDBRANCH  15  17
ENDBRANCH   6  15
TORSDOF 7
ENDMDL
MODEL 5
REMARK VINA RESULT:    -5.357      2.179      7.159
REMARK INTER + INTRA:          -7.707
REMARK INTER:                  -7.748
REMARK INTRA:                   0.042
REMARK UNBOUND:                -0.158
REMARK SMILES C=CCOC(=O)C1=CS[C@H]2[C@@H]([C@@H](C)OC(C)=O)C(=O)N12
REMARK SMILES IDX 9 1 8 2 7 3 20 4 10 5 11 6 18 7 19 8 5 9 6 10 4 11 3 12 2 13
REMARK SMILES IDX 1 14 12 15 13 16 14 17 15 18 17 19 16 20
REMARK H PARENT
REMARK Flexibility Score: inf
ROOT
ATOM      1  S   UNL     1      66.727  19.670  10.698  1.00  0.00    -0.105 SA
ATOM      2  C   UNL     1      67.746  19.225  12.057  1.00  0.00     0.004 C 
ATOM      3  C   UNL     1      68.253  20.237  12.769  1.00  0.00     0.137 C 
ATOM      4  N   UNL     1      67.960  21.491  12.296  1.00  0.00    -0.291 N 
ATOM      5  C   UNL     1      67.327  21.424  10.966  1.00  0.00     0.102 C 
ATOM      6  C   UNL     1      66.300  22.468  11.470  1.00  0.00     0.106 C 
ATOM      7  C   UNL     1      66.917  22.191  12.850  1.00  0.00     0.238 C 
ATOM      8  O   UNL     1      66.587  22.380  13.997  1.00  0.00    -0.274 OA
ENDROOT
BRANCH   3   9
ATOM      9  C   UNL     1      69.080  20.085  13.996  1.00  0.00     0.355 C 
ATOM     10  O   UNL     1      69.403  21.017  14.717  1.00  0.00    -0.244 OA
BRANCH   9  11
ATOM     11  O   UNL     1      69.423  18.786  14.180  1.00  0.00    -0.457 OA
BRANCH  11  12
ATOM     12  C   UNL     1      70.832  18.576  14.286  1.00  0.00     0.110 C 
BRANCH  12  13
ATOM     13  C   UNL     1      71.091  17.998  15.644  1.00  0.00    -0.054 C 
ATOM     14  C   UNL     1      70.166  17.860  16.602  1.00  0.00    -0.100 C 
ENDBRANCH  12  13
ENDBRANCH  11  12
ENDBRANCH   9  11
ENDBRANCH   3   9
BRANCH   6  15
ATOM     15  C   UNL     1      64.800  22.224  11.353  1.00  0.00     0.113 C 
ATOM     16  C   UNL     1      64.047  23.129  12.326  1.00  0.00    -0.027 C 
BRANCH  15  17
ATOM     17  O   UNL     1      64.419  22.599  10.009  1.00  0.00    -0.462 OA
BRANCH  17  18
ATOM     18  C   UNL     1      63.450  21.985   9.288  1.00  0.00     0.302 C 
ATOM     19  O   UNL     1      62.283  22.354   9.373  1.00  0.00    -0.253 OA
ATOM     20  C   UNL     1      63.858  20.866   8.378  1.00  0.00     0.034 C 
ENDBRANCH  17  18
ENDBRANCH  15  17
ENDBRANCH   6  15
TORSDOF 7
ENDMDL
MODEL 6
REMARK VINA RESULT:    -5.355      3.561      5.921
REMARK INTER + INTRA:          -7.704
REMARK INTER:                  -7.438
REMARK INTRA:                  -0.267
REMARK UNBOUND:                -0.158
REMARK SMILES C=CCOC(=O)C1=CS[C@H]2[C@@H]([C@@H](C)OC(C)=O)C(=O)N12
REMARK SMILES IDX 9 1 8 2 7 3 20 4 10 5 11 6 18 7 19 8 5 9 6 10 4 11 3 12 2 13
REMARK SMILES IDX 1 14 12 15 13 16 14 17 15 18 17 19 16 20
REMARK H PARENT
REMARK Flexibility Score: inf
ROOT
ATOM      1  S   UNL     1      69.441  19.351  16.128  1.00  0.00    -0.105 SA
ATOM      2  C   UNL     1      68.744  20.918  15.750  1.00  0.00     0.004 C 
ATOM      3  C   UNL     1      68.755  21.270  14.460  1.00  0.00     0.137 C 
ATOM      4  N   UNL     1      69.373  20.384  13.614  1.00  0.00    -0.291 N 
ATOM      5  C   UNL     1      70.085  19.337  14.370  1.00  0.00     0.102 C 
ATOM      6  C   UNL     1      69.480  18.303  13.388  1.00  0.00     0.106 C 
ATOM      7  C   UNL     1      68.612  19.480  12.916  1.00  0.00     0.238 C 
ATOM      8  O   UNL     1      67.586  19.599  12.288  1.00  0.00    -0.274 OA
ENDROOT
BRANCH   3   9
ATOM      9  C   UNL     1      68.157  22.518  13.913  1.00  0.00     0.355 C 
ATOM     10  O   UNL     1      68.810  23.496  13.582  1.00  0.00    -0.244 OA
BRANCH   9  11
ATOM     11  O   UNL     1      66.806  22.409  13.850  1.00  0.00    -0.457 OA
BRANCH  11  12
ATOM     12  C   UNL     1      66.235  23.051  12.708  1.00  0.00     0.110 C 
BRANCH  12  13
ATOM     13  C   UNL     1      65.114  22.179  12.228  1.00  0.00    -0.054 C 
ATOM     14  C   UNL     1      64.269  22.499  11.240  1.00  0.00    -0.100 C 
ENDBRANCH  12  13
ENDBRANCH  11  12
ENDBRANCH   9  11
ENDBRANCH   3   9
BRANCH   6  15
ATOM     15  C   UNL     1      68.722  17.081  13.892  1.00  0.00     0.113 C 
ATOM     16  C   UNL     1      68.201  16.266  12.711  1.00  0.00    -0.027 C 
BRANCH  15  17
ATOM     17  O   UNL     1      69.676  16.265  14.612  1.00  0.00    -0.462 OA
BRANCH  17  18
ATOM     18  C   UNL     1      69.447  15.710  15.826  1.00  0.00     0.302 C 
ATOM     19  O   UNL     1      68.345  15.246  16.100  1.00  0.00    -0.253 OA
ATOM     20  C   UNL     1      70.585  15.665  16.801  1.00  0.00     0.034 C 
ENDBRANCH  17  18
ENDBRANCH  15  17
ENDBRANCH   6  15
TORSDOF 7
ENDMDL
MODEL 7
REMARK VINA RESULT:    -5.192      3.433      5.251
REMARK INTER + INTRA:          -7.475
REMARK INTER:                  -7.314
REMARK INTRA:                  -0.162
REMARK UNBOUND:                -0.158
REMARK SMILES C=CCOC(=O)C1=CS[C@H]2[C@@H]([C@@H](C)OC(C)=O)C(=O)N12
REMARK SMILES IDX 9 1 8 2 7 3 20 4 10 5 11 6 18 7 19 8 5 9 6 10 4 11 3 12 2 13
REMARK SMILES IDX 1 14 12 15 13 16 14 17 15 18 17 19 16 20
REMARK H PARENT
REMARK Flexibility Score: inf
ROOT
ATOM      1  S   UNL     1      65.213  21.137   6.425  1.00  0.00    -0.105 SA
ATOM      2  C   UNL     1      64.496  22.297   5.318  1.00  0.00     0.004 C 
ATOM      3  C   UNL     1      63.237  22.660   5.583  1.00  0.00     0.137 C 
ATOM      4  N   UNL     1      62.653  22.023   6.648  1.00  0.00    -0.291 N 
ATOM      5  C   UNL     1      63.492  20.908   7.125  1.00  0.00     0.102 C 
ATOM      6  C   UNL     1      63.228  21.408   8.568  1.00  0.00     0.106 C 
ATOM      7  C   UNL     1      62.633  22.643   7.873  1.00  0.00     0.238 C 
ATOM      8  O   UNL     1      62.361  23.773   8.204  1.00  0.00    -0.274 OA
ENDROOT
BRANCH   3   9
ATOM      9  C   UNL     1      62.465  23.677   4.818  1.00  0.00     0.355 C 
ATOM     10  O   UNL     1      62.980  24.526   4.106  1.00  0.00    -0.244 OA
BRANCH   9  11
ATOM     11  O   UNL     1      61.135  23.529   5.038  1.00  0.00    -0.457 OA
BRANCH  11  12
ATOM     12  C   UNL     1      60.445  22.896   3.958  1.00  0.00     0.110 C 
BRANCH  12  13
ATOM     13  C   UNL     1      59.226  23.719   3.673  1.00  0.00    -0.054 C 
ATOM     14  C   UNL     1      59.242  25.020   3.355  1.00  0.00    -0.100 C 
ENDBRANCH  12  13
ENDBRANCH  11  12
ENDBRANCH   9  11
ENDBRANCH   3   9
BRANCH   6  15
ATOM     15  C   UNL     1      64.374  21.679   9.534  1.00  0.00     0.113 C 
ATOM     16  C   UNL     1      63.835  22.297  10.823  1.00  0.00    -0.027 C 
BRANCH  15  17
ATOM     17  O   UNL     1      64.956  20.395   9.864  1.00  0.00    -0.462 OA
BRANCH  17  18
ATOM     18  C   UNL     1      66.255  20.207  10.198  1.00  0.00     0.302 C 
ATOM     19  O   UNL     1      67.098  20.005   9.330  1.00  0.00    -0.253 OA
ATOM     20  C   UNL     1      66.621  20.275  11.650  1.00  0.00     0.034 C 
ENDBRANCH  17  18
ENDBRANCH  15  17
ENDBRANCH   6  15
TORSDOF 7
ENDMDL
MODEL 8
REMARK VINA RESULT:    -5.171      9.105     12.537
REMARK INTER + INTRA:          -7.444
REMARK INTER:                  -7.037
REMARK INTRA:                  -0.407
REMARK UNBOUND:                -0.158
REMARK SMILES C=CCOC(=O)C1=CS[C@H]2[C@@H]([C@@H](C)OC(C)=O)C(=O)N12
REMARK SMILES IDX 9 1 8 2 7 3 20 4 10 5 11 6 18 7 19 8 5 9 6 10 4 11 3 12 2 13
REMARK SMILES IDX 1 14 12 15 13 16 14 17 15 18 17 19 16 20
REMARK H PARENT
REMARK Flexibility Score: inf
ROOT
ATOM      1  S   UNL     1      57.214  22.754   3.510  1.00  0.00    -0.105 SA
ATOM      2  C   UNL     1      56.080  23.002   2.192  1.00  0.00     0.004 C 
ATOM      3  C   UNL     1      56.040  24.233   1.674  1.00  0.00     0.137 C 
ATOM      4  N   UNL     1      56.847  25.156   2.291  1.00  0.00    -0.291 N 
ATOM      5  C   UNL     1      57.413  24.616   3.540  1.00  0.00     0.102 C 
ATOM      6  C   UNL     1      58.779  25.203   3.103  1.00  0.00     0.106 C 
ATOM      7  C   UNL     1      58.079  25.436   1.755  1.00  0.00     0.238 C 
ATOM      8  O   UNL     1      58.439  25.653   0.621  1.00  0.00    -0.274 OA
ENDROOT
BRANCH   3   9
ATOM      9  C   UNL     1      55.207  24.642   0.511  1.00  0.00     0.355 C 
ATOM     10  O   UNL     1      55.042  23.951  -0.483  1.00  0.00    -0.244 OA
BRANCH   9  11
ATOM     11  O   UNL     1      54.680  25.875   0.714  1.00  0.00    -0.457 OA
BRANCH  11  12
ATOM     12  C   UNL     1      55.034  26.821  -0.297  1.00  0.00     0.110 C 
BRANCH  12  13
ATOM     13  C   UNL     1      55.664  27.991   0.397  1.00  0.00    -0.054 C 
ATOM     14  C   UNL     1      56.687  28.706  -0.091  1.00  0.00    -0.100 C 
ENDBRANCH  12  13
ENDBRANCH  11  12
ENDBRANCH   9  11
ENDBRANCH   3   9
BRANCH   6  15
ATOM     15  C   UNL     1      60.033  24.340   3.059  1.00  0.00     0.113 C 
ATOM     16  C   UNL     1      61.178  25.117   2.413  1.00  0.00    -0.027 C 
BRANCH  15  17
ATOM     17  O   UNL     1      60.400  24.063   4.431  1.00  0.00    -0.462 OA
BRANCH  17  18
ATOM     18  C   UNL     1      61.475  23.328   4.803  1.00  0.00     0.302 C 
ATOM     19  O   UNL     1      62.239  23.738   5.671  1.00  0.00    -0.253 OA
ATOM     20  C   UNL     1      61.680  22.001   4.137  1.00  0.00     0.034 C 
ENDBRANCH  17  18
ENDBRANCH  15  17
ENDBRANCH   6  15
TORSDOF 7
ENDMDL
MODEL 9
REMARK VINA RESULT:    -5.166      3.942      5.881
REMARK INTER + INTRA:          -7.437
REMARK INTER:                  -7.168
REMARK INTRA:                  -0.269
REMARK UNBOUND:                -0.158
REMARK SMILES C=CCOC(=O)C1=CS[C@H]2[C@@H]([C@@H](C)OC(C)=O)C(=O)N12
REMARK SMILES IDX 9 1 8 2 7 3 20 4 10 5 11 6 18 7 19 8 5 9 6 10 4 11 3 12 2 13
REMARK SMILES IDX 1 14 12 15 13 16 14 17 15 18 17 19 16 20
REMARK H PARENT
REMARK Flexibility Score: inf
ROOT
ATOM      1  S   UNL     1      69.462  20.098  15.667  1.00  0.00    -0.105 SA
ATOM      2  C   UNL     1      68.457  21.230  14.778  1.00  0.00     0.004 C 
ATOM      3  C   UNL     1      68.313  20.987  13.471  1.00  0.00     0.137 C 
ATOM      4  N   UNL     1      69.029  19.920  12.989  1.00  0.00    -0.291 N 
ATOM      5  C   UNL     1      69.977  19.417  14.000  1.00  0.00     0.102 C 
ATOM      6  C   UNL     1      69.513  17.985  13.632  1.00  0.00     0.106 C 
ATOM      7  C   UNL     1      68.408  18.705  12.843  1.00  0.00     0.238 C 
ATOM      8  O   UNL     1      67.337  18.394  12.376  1.00  0.00    -0.274 OA
ENDROOT
BRANCH   3   9
ATOM      9  C   UNL     1      67.454  21.776  12.548  1.00  0.00     0.355 C 
ATOM     10  O   UNL     1      67.578  21.771  11.332  1.00  0.00    -0.244 OA
BRANCH   9  11
ATOM     11  O   UNL     1      66.539  22.494  13.246  1.00  0.00    -0.457 OA
BRANCH  11  12
ATOM     12  C   UNL     1      66.341  23.815  12.738  1.00  0.00     0.110 C 
BRANCH  12  13
ATOM     13  C   UNL     1      67.411  24.680  13.331  1.00  0.00    -0.054 C 
ATOM     14  C   UNL     1      67.376  26.019  13.367  1.00  0.00    -0.100 C 
ENDBRANCH  12  13
ENDBRANCH  11  12
ENDBRANCH   9  11
ENDBRANCH   3   9
BRANCH   6  15
ATOM     15  C   UNL     1      69.037  17.008  14.699  1.00  0.00     0.113 C 
ATOM     16  C   UNL     1      68.550  15.717  14.044  1.00  0.00    -0.027 C 
BRANCH  15  17
ATOM     17  O   UNL     1      70.188  16.687  15.516  1.00  0.00    -0.462 OA
BRANCH  17  18
ATOM     18  C   UNL     1      70.167  16.599  16.868  1.00  0.00     0.302 C 
ATOM     19  O   UNL     1      69.322  15.912  17.434  1.00  0.00    -0.253 OA
ATOM     20  C   UNL     1      71.216  17.346  17.634  1.00  0.00     0.034 C 
ENDBRANCH  17  18
ENDBRANCH  15  17
ENDBRANCH   6  15
TORSDOF 7
ENDMDL
MODEL 10
REMARK VINA RESULT:    -5.104     12.133     13.990
REMARK INTER + INTRA:          -7.351
REMARK INTER:                  -6.782
REMARK INTRA:                  -0.569
REMARK UNBOUND:                -0.158
REMARK SMILES C=CCOC(=O)C1=CS[C@H]2[C@@H]([C@@H](C)OC(C)=O)C(=O)N12
REMARK SMILES IDX 9 1 8 2 7 3 20 4 10 5 11 6 18 7 19 8 5 9 6 10 4 11 3 12 2 13
REMARK SMILES IDX 1 14 12 15 13 16 14 17 15 18 17 19 16 20
REMARK H PARENT
REMARK Flexibility Score: inf
ROOT
ATOM      1  S   UNL     1      76.809  30.180   3.031  1.00  0.00    -0.105 SA
ATOM      2  C   UNL     1      76.525  29.069   1.701  1.00  0.00     0.004 C 
ATOM      3  C   UNL     1      75.732  28.025   1.966  1.00  0.00     0.137 C 
ATOM      4  N   UNL     1      75.302  27.930   3.266  1.00  0.00    -0.291 N 
ATOM      5  C   UNL     1      76.006  28.895   4.130  1.00  0.00     0.102 C 
ATOM      6  C   UNL     1      74.632  29.240   4.758  1.00  0.00     0.106 C 
ATOM      7  C   UNL     1      74.060  28.408   3.599  1.00  0.00     0.238 C 
ATOM      8  O   UNL     1      72.978  28.290   3.072  1.00  0.00    -0.274 OA
ENDROOT
BRANCH   3   9
ATOM      9  C   UNL     1      75.306  27.005   0.971  1.00  0.00     0.355 C 
ATOM     10  O   UNL     1      75.094  27.252  -0.207  1.00  0.00    -0.244 OA
BRANCH   9  11
ATOM     11  O   UNL     1      75.179  25.790   1.560  1.00  0.00    -0.457 OA
BRANCH  11  12
ATOM     12  C   UNL     1      73.907  25.178   1.338  1.00  0.00     0.110 C 
BRANCH  12  13
ATOM     13  C   UNL     1      73.367  24.785   2.679  1.00  0.00    -0.054 C 
ATOM     14  C   UNL     1      74.117  24.546   3.763  1.00  0.00    -0.100 C 
ENDBRANCH  12  13
ENDBRANCH  11  12
ENDBRANCH   9  11
ENDBRANCH   3   9
BRANCH   6  15
ATOM     15  C   UNL     1      74.141  30.679   4.846  1.00  0.00     0.113 C 
ATOM     16  C   UNL     1      72.796  30.728   5.568  1.00  0.00    -0.027 C 
BRANCH  15  17
ATOM     17  O   UNL     1      75.104  31.402   5.649  1.00  0.00    -0.462 OA
BRANCH  17  18
ATOM     18  C   UNL     1      75.194  32.752   5.706  1.00  0.00     0.302 C 
ATOM     19  O   UNL     1      75.158  33.333   6.786  1.00  0.00    -0.253 OA
ATOM     20  C   UNL     1      75.360  33.497   4.416  1.00  0.00     0.034 C 
ENDBRANCH  17  18
ENDBRANCH  15  17
ENDBRANCH   6  15
TORSDOF 7
ENDMDL
MODEL 11
REMARK VINA RESULT:    -5.104      3.461      8.120
REMARK INTER + INTRA:          -7.351
REMARK INTER:                  -7.432
REMARK INTRA:                   0.081
REMARK UNBOUND:                -0.158
REMARK SMILES C=CCOC(=O)C1=CS[C@H]2[C@@H]([C@@H](C)OC(C)=O)C(=O)N12
REMARK SMILES IDX 9 1 8 2 7 3 20 4 10 5 11 6 18 7 19 8 5 9 6 10 4 11 3 12 2 13
REMARK SMILES IDX 1 14 12 15 13 16 14 17 15 18 17 19 16 20
REMARK H PARENT
REMARK Flexibility Score: inf
ROOT
ATOM      1  S   UNL     1      65.815  21.753   5.638  1.00  0.00    -0.105 SA
ATOM      2  C   UNL     1      64.928  21.439   7.121  1.00  0.00     0.004 C 
ATOM      3  C   UNL     1      64.141  22.429   7.555  1.00  0.00     0.137 C 
ATOM      4  N   UNL     1      64.186  23.584   6.815  1.00  0.00    -0.291 N 
ATOM      5  C   UNL     1      65.277  23.537   5.825  1.00  0.00     0.102 C 
ATOM      6  C   UNL     1      64.275  24.100   4.786  1.00  0.00     0.106 C 
ATOM      7  C   UNL     1      63.221  23.812   5.866  1.00  0.00     0.238 C 
ATOM      8  O   UNL     1      62.018  23.694   5.890  1.00  0.00    -0.274 OA
ENDROOT
BRANCH   3   9
ATOM      9  C   UNL     1      63.252  22.350   8.746  1.00  0.00     0.355 C 
ATOM     10  O   UNL     1      62.189  21.747   8.762  1.00  0.00    -0.244 OA
BRANCH   9  11
ATOM     11  O   UNL     1      63.784  23.043   9.783  1.00  0.00    -0.457 OA
BRANCH  11  12
ATOM     12  C   UNL     1      63.877  22.283  10.990  1.00  0.00     0.110 C 
BRANCH  12  13
ATOM     13  C   UNL     1      65.284  21.776  11.083  1.00  0.00    -0.054 C 
ATOM     14  C   UNL     1      65.945  21.567  12.229  1.00  0.00    -0.100 C 
ENDBRANCH  12  13
ENDBRANCH  11  12
ENDBRANCH   9  11
ENDBRANCH   3   9
BRANCH   6  15
ATOM     15  C   UNL     1      64.055  23.412   3.445  1.00  0.00     0.113 C 
ATOM     16  C   UNL     1      62.864  24.042   2.725  1.00  0.00    -0.027 C 
BRANCH  15  17
ATOM     17  O   UNL     1      65.238  23.658   2.648  1.00  0.00    -0.462 OA
BRANCH  17  18
ATOM     18  C   UNL     1      65.873  24.851   2.568  1.00  0.00     0.302 C 
ATOM     19  O   UNL     1      65.303  25.829   2.096  1.00  0.00    -0.253 OA
ATOM     20  C   UNL     1      67.275  24.934   3.093  1.00  0.00     0.034 C 
ENDBRANCH  17  18
ENDBRANCH  15  17
ENDBRANCH   6  15
TORSDOF 7
ENDMDL
MODEL 12
REMARK VINA RESULT:    -5.101      2.494      6.909
REMARK INTER + INTRA:          -7.346
REMARK INTER:                  -7.188
REMARK INTRA:                  -0.158
REMARK UNBOUND:                -0.158
REMARK SMILES C=CCOC(=O)C1=CS[C@H]2[C@@H]([C@@H](C)OC(C)=O)C(=O)N12
REMARK SMILES IDX 9 1 8 2 7 3 20 4 10 5 11 6 18 7 19 8 5 9 6 10 4 11 3 12 2 13
REMARK SMILES IDX 1 14 12 15 13 16 14 17 15 18 17 19 16 20
REMARK H PARENT
REMARK Flexibility Score: inf
ROOT
ATOM      1  S   UNL     1      65.408  18.743   9.261  1.00  0.00    -0.105 SA
ATOM      2  C   UNL     1      66.346  17.882  10.470  1.00  0.00     0.004 C 
ATOM      3  C   UNL     1      67.154  18.629  11.229  1.00  0.00     0.137 C 
ATOM      4  N   UNL     1      67.190  19.964  10.911  1.00  0.00    -0.291 N 
ATOM      5  C   UNL     1      66.483  20.227   9.645  1.00  0.00     0.102 C 
ATOM      6  C   UNL     1      65.816  21.440  10.341  1.00  0.00     0.106 C 
ATOM      7  C   UNL     1      66.416  20.845  11.625  1.00  0.00     0.238 C 
ATOM      8  O   UNL     1      66.221  20.976  12.811  1.00  0.00    -0.274 OA
ENDROOT
BRANCH   3   9
ATOM      9  C   UNL     1      67.981  18.116  12.354  1.00  0.00     0.355 C 
ATOM     10  O   UNL     1      67.733  17.088  12.966  1.00  0.00    -0.244 OA
BRANCH   9  11
ATOM     11  O   UNL     1      69.022  18.951  12.599  1.00  0.00    -0.457 OA
BRANCH  11  12
ATOM     12  C   UNL     1      69.483  18.908  13.950  1.00  0.00     0.110 C 
BRANCH  12  13
ATOM     13  C   UNL     1      69.411  20.306  14.484  1.00  0.00    -0.054 C 
ATOM     14  C   UNL     1      69.092  20.625  15.746  1.00  0.00    -0.100 C 
ENDBRANCH  12  13
ENDBRANCH  11  12
ENDBRANCH   9  11
ENDBRANCH   3   9
BRANCH   6  15
ATOM     15  C   UNL     1      64.303  21.621  10.338  1.00  0.00     0.113 C 
ATOM     16  C   UNL     1      63.895  22.619  11.420  1.00  0.00    -0.027 C 
BRANCH  15  17
ATOM     17  O   UNL     1      63.951  22.186   9.054  1.00  0.00    -0.462 OA
BRANCH  17  18
ATOM     18  C   UNL     1      62.765  21.991   8.430  1.00  0.00     0.302 C 
ATOM     19  O   UNL     1      61.835  22.774   8.600  1.00  0.00    -0.253 OA
ATOM     20  C   UNL     1      62.640  20.807   7.519  1.00  0.00     0.034 C 
ENDBRANCH  17  18
ENDBRANCH  15  17
ENDBRANCH   6  15
TORSDOF 7
ENDMDL
MODEL 13
REMARK VINA RESULT:    -5.099     14.565     16.300
REMARK INTER + INTRA:          -7.344
REMARK INTER:                  -7.300
REMARK INTRA:                  -0.044
REMARK UNBOUND:                -0.158
REMARK SMILES C=CCOC(=O)C1=CS[C@H]2[C@@H]([C@@H](C)OC(C)=O)C(=O)N12
REMARK SMILES IDX 9 1 8 2 7 3 20 4 10 5 11 6 18 7 19 8 5 9 6 10 4 11 3 12 2 13
REMARK SMILES IDX 1 14 12 15 13 16 14 17 15 18 17 19 16 20
REMARK H PARENT
REMARK Flexibility Score: inf
ROOT
ATOM      1  S   UNL     1      58.948  27.362  -4.098  1.00  0.00    -0.105 SA
ATOM      2  C   UNL     1      60.634  26.949  -4.363  1.00  0.00     0.004 C 
ATOM      3  C   UNL     1      61.475  27.242  -3.366  1.00  0.00     0.137 C 
ATOM      4  N   UNL     1      60.913  27.890  -2.295  1.00  0.00    -0.291 N 
ATOM      5  C   UNL     1      59.533  28.314  -2.596  1.00  0.00     0.102 C 
ATOM      6  C   UNL     1      59.130  27.776  -1.200  1.00  0.00     0.106 C 
ATOM      7  C   UNL     1      60.540  27.165  -1.191  1.00  0.00     0.238 C 
ATOM      8  O   UNL     1      61.100  26.296  -0.566  1.00  0.00    -0.274 OA
ENDROOT
BRANCH   3   9
ATOM      9  C   UNL     1      62.927  26.916  -3.352  1.00  0.00     0.355 C 
ATOM     10  O   UNL     1      63.380  25.821  -3.647  1.00  0.00    -0.244 OA
BRANCH   9  11
ATOM     11  O   UNL     1      63.652  27.993  -2.959  1.00  0.00    -0.457 OA
BRANCH  11  12
ATOM     12  C   UNL     1      64.402  28.594  -4.017  1.00  0.00     0.110 C 
BRANCH  12  13
ATOM     13  C   UNL     1      63.874  29.985  -4.196  1.00  0.00    -0.054 C 
ATOM     14  C   UNL     1      63.052  30.604  -3.339  1.00  0.00    -0.100 C 
ENDBRANCH  12  13
ENDBRANCH  11  12
ENDBRANCH   9  11
ENDBRANCH   3   9
BRANCH   6  15
ATOM     15  C   UNL     1      57.979  26.792  -1.032  1.00  0.00     0.113 C 
ATOM     16  C   UNL     1      57.940  26.274   0.404  1.00  0.00    -0.027 C 
BRANCH  15  17
ATOM     17  O   UNL     1      56.758  27.530  -1.274  1.00  0.00    -0.462 OA
BRANCH  17  18
ATOM     18  C   UNL     1      55.928  27.976  -0.301  1.00  0.00     0.302 C 
ATOM     19  O   UNL     1      54.965  27.303   0.054  1.00  0.00    -0.253 OA
ATOM     20  C   UNL     1      56.241  29.298   0.333  1.00  0.00     0.034 C 
ENDBRANCH  17  18
ENDBRANCH  15  17
ENDBRANCH   6  15
TORSDOF 7
ENDMDL
MODEL 14
REMARK VINA RESULT:    -5.079      2.066      2.853
REMARK INTER + INTRA:          -7.315
REMARK INTER:                  -7.167
REMARK INTRA:                  -0.148
REMARK UNBOUND:                -0.158
REMARK SMILES C=CCOC(=O)C1=CS[C@H]2[C@@H]([C@@H](C)OC(C)=O)C(=O)N12
REMARK SMILES IDX 9 1 8 2 7 3 20 4 10 5 11 6 18 7 19 8 5 9 6 10 4 11 3 12 2 13
REMARK SMILES IDX 1 14 12 15 13 16 14 17 15 18 17 19 16 20
REMARK H PARENT
REMARK Flexibility Score: inf
ROOT
ATOM      1  S   UNL     1      66.943  22.172  13.347  1.00  0.00    -0.105 SA
ATOM      2  C   UNL     1      65.480  22.661  12.509  1.00  0.00     0.004 C 
ATOM      3  C   UNL     1      65.409  22.339  11.213  1.00  0.00     0.137 C 
ATOM      4  N   UNL     1      66.524  21.727  10.698  1.00  0.00    -0.291 N 
ATOM      5  C   UNL     1      67.643  21.767  11.658  1.00  0.00     0.102 C 
ATOM      6  C   UNL     1      67.901  20.276  11.323  1.00  0.00     0.106 C 
ATOM      7  C   UNL     1      66.551  20.359  10.594  1.00  0.00     0.238 C 
ATOM      8  O   UNL     1      65.739  19.561  10.188  1.00  0.00    -0.274 OA
ENDROOT
BRANCH   3   9
ATOM      9  C   UNL     1      64.236  22.595  10.335  1.00  0.00     0.355 C 
ATOM     10  O   UNL     1      63.081  22.361  10.658  1.00  0.00    -0.244 OA
BRANCH   9  11
ATOM     11  O   UNL     1      64.636  23.104   9.143  1.00  0.00    -0.457 OA
BRANCH  11  12
ATOM     12  C   UNL     1      64.124  22.389   8.016  1.00  0.00     0.110 C 
BRANCH  12  13
ATOM     13  C   UNL     1      63.035  23.229   7.421  1.00  0.00    -0.054 C 
ATOM     14  C   UNL     1      62.977  23.602   6.136  1.00  0.00    -0.100 C 
ENDBRANCH  12  13
ENDBRANCH  11  12
ENDBRANCH   9  11
ENDBRANCH   3   9
BRANCH   6  15
ATOM     15  C   UNL     1      67.999  19.224  12.421  1.00  0.00     0.113 C 
ATOM     16  C   UNL     1      68.108  17.832  11.801  1.00  0.00    -0.027 C 
BRANCH  15  17
ATOM     17  O   UNL     1      69.224  19.487  13.146  1.00  0.00    -0.462 OA
BRANCH  17  18
ATOM     18  C   UNL     1      69.401  19.236  14.465  1.00  0.00     0.302 C 
ATOM     19  O   UNL     1      69.583  18.090  14.862  1.00  0.00    -0.253 OA
ATOM     20  C   UNL     1      69.389  20.403  15.406  1.00  0.00     0.034 C 
ENDBRANCH  17  18
ENDBRANCH  15  17
ENDBRANCH   6  15
TORSDOF 7
ENDMDL
MODEL 15
REMARK VINA RESULT:    -5.058      4.442      8.514
REMARK INTER + INTRA:          -7.286
REMARK INTER:                  -7.037
REMARK INTRA:                  -0.249
REMARK UNBOUND:                -0.158
REMARK SMILES C=CCOC(=O)C1=CS[C@H]2[C@@H]([C@@H](C)OC(C)=O)C(=O)N12
REMARK SMILES IDX 9 1 8 2 7 3 20 4 10 5 11 6 18 7 19 8 5 9 6 10 4 11 3 12 2 13
REMARK SMILES IDX 1 14 12 15 13 16 14 17 15 18 17 19 16 20
REMARK H PARENT
REMARK Flexibility Score: inf
ROOT
ATOM      1  S   UNL     1      67.261  22.587   4.777  1.00  0.00    -0.105 SA
ATOM      2  C   UNL     1      65.888  21.876   5.610  1.00  0.00     0.004 C 
ATOM      3  C   UNL     1      64.938  22.727   6.011  1.00  0.00     0.137 C 
ATOM      4  N   UNL     1      65.199  24.053   5.774  1.00  0.00    -0.291 N 
ATOM      5  C   UNL     1      66.590  24.248   5.324  1.00  0.00     0.102 C 
ATOM      6  C   UNL     1      66.037  25.197   4.231  1.00  0.00     0.106 C 
ATOM      7  C   UNL     1      64.665  24.655   4.662  1.00  0.00     0.238 C 
ATOM      8  O   UNL     1      63.557  24.631   4.182  1.00  0.00    -0.274 OA
ENDROOT
BRANCH   3   9
ATOM      9  C   UNL     1      63.664  22.332   6.669  1.00  0.00     0.355 C 
ATOM     10  O   UNL     1      62.791  21.674   6.123  1.00  0.00    -0.244 OA
BRANCH   9  11
ATOM     11  O   UNL     1      63.614  22.814   7.936  1.00  0.00    -0.457 OA
BRANCH  11  12
ATOM     12  C   UNL     1      64.279  21.982   8.890  1.00  0.00     0.110 C 
BRANCH  12  13
ATOM     13  C   UNL     1      63.565  22.154  10.196  1.00  0.00    -0.054 C 
ATOM     14  C   UNL     1      64.157  22.492  11.349  1.00  0.00    -0.100 C 
ENDBRANCH  12  13
ENDBRANCH  11  12
ENDBRANCH   9  11
ENDBRANCH   3   9
BRANCH   6  15
ATOM     15  C   UNL     1      66.394  25.007   2.762  1.00  0.00     0.113 C 
ATOM     16  C   UNL     1      65.618  26.003   1.903  1.00  0.00    -0.027 C 
BRANCH  15  17
ATOM     17  O   UNL     1      67.804  25.308   2.631  1.00  0.00    -0.462 OA
BRANCH  17  18
ATOM     18  C   UNL     1      68.564  24.963   1.565  1.00  0.00     0.302 C 
ATOM     19  O   UNL     1      68.990  25.823   0.800  1.00  0.00    -0.253 OA
ATOM     20  C   UNL     1      68.879  23.511   1.370  1.00  0.00     0.034 C 
ENDBRANCH  17  18
ENDBRANCH  15  17
ENDBRANCH   6  15
TORSDOF 7
ENDMDL
MODEL 16
REMARK VINA RESULT:    -5.027      9.304     13.296
REMARK INTER + INTRA:          -7.242
REMARK INTER:                  -7.275
REMARK INTRA:                   0.033
REMARK UNBOUND:                -0.158
REMARK SMILES C=CCOC(=O)C1=CS[C@H]2[C@@H]([C@@H](C)OC(C)=O)C(=O)N12
REMARK SMILES IDX 9 1 8 2 7 3 20 4 10 5 11 6 18 7 19 8 5 9 6 10 4 11 3 12 2 13
REMARK SMILES IDX 1 14 12 15 13 16 14 17 15 18 17 19 16 20
REMARK H PARENT
REMARK Flexibility Score: inf
ROOT
ATOM      1  S   UNL     1      59.032  25.682   0.860  1.00  0.00    -0.105 SA
ATOM      2  C   UNL     1      60.457  25.055   1.672  1.00  0.00     0.004 C 
ATOM      3  C   UNL     1      60.289  24.678   2.944  1.00  0.00     0.137 C 
ATOM      4  N   UNL     1      59.038  24.896   3.462  1.00  0.00    -0.291 N 
ATOM      5  C   UNL     1      58.219  25.712   2.546  1.00  0.00     0.102 C 
ATOM      6  C   UNL     1      57.056  24.721   2.804  1.00  0.00     0.106 C 
ATOM      7  C   UNL     1      58.132  23.865   3.489  1.00  0.00     0.238 C 
ATOM      8  O   UNL     1      58.233  22.706   3.819  1.00  0.00    -0.274 OA
ENDROOT
BRANCH   3   9
ATOM      9  C   UNL     1      61.341  24.056   3.794  1.00  0.00     0.355 C 
ATOM     10  O   UNL     1      61.211  23.844   4.990  1.00  0.00    -0.244 OA
BRANCH   9  11
ATOM     11  O   UNL     1      62.445  23.779   3.056  1.00  0.00    -0.457 OA
BRANCH  11  12
ATOM     12  C   UNL     1      63.622  24.445   3.517  1.00  0.00     0.110 C 
BRANCH  12  13
ATOM     13  C   UNL     1      64.199  25.180   2.345  1.00  0.00    -0.054 C 
ATOM     14  C   UNL     1      65.397  25.779   2.336  1.00  0.00    -0.100 C 
ENDBRANCH  12  13
ENDBRANCH  11  12
ENDBRANCH   9  11
ENDBRANCH   3   9
BRANCH   6  15
ATOM     15  C   UNL     1      56.313  24.057   1.652  1.00  0.00     0.113 C 
ATOM     16  C   UNL     1      55.568  22.822   2.155  1.00  0.00    -0.027 C 
BRANCH  15  17
ATOM     17  O   UNL     1      55.330  25.010   1.181  1.00  0.00    -0.462 OA
BRANCH  17  18
ATOM     18  C   UNL     1      54.354  24.724   0.286  1.00  0.00     0.302 C 
ATOM     19  O   UNL     1      53.176  24.916   0.568  1.00  0.00    -0.253 OA
ATOM     20  C   UNL     1      54.767  24.193  -1.053  1.00  0.00     0.034 C 
ENDBRANCH  17  18
ENDBRANCH  15  17
ENDBRANCH   6  15
TORSDOF 7
ENDMDL
MODEL 17
REMARK VINA RESULT:    -4.961     13.138     15.233
REMARK INTER + INTRA:          -7.148
REMARK INTER:                  -6.881
REMARK INTRA:                  -0.267
REMARK UNBOUND:                -0.158
REMARK SMILES C=CCOC(=O)C1=CS[C@H]2[C@@H]([C@@H](C)OC(C)=O)C(=O)N12
REMARK SMILES IDX 9 1 8 2 7 3 20 4 10 5 11 6 18 7 19 8 5 9 6 10 4 11 3 12 2 13
REMARK SMILES IDX 1 14 12 15 13 16 14 17 15 18 17 19 16 20
REMARK H PARENT
REMARK Flexibility Score: inf
ROOT
ATOM      1  S   UNL     1      61.292  24.968  -0.288  1.00  0.00    -0.105 SA
ATOM      2  C   UNL     1      62.567  25.603  -1.315  1.00  0.00     0.004 C 
ATOM      3  C   UNL     1      62.184  26.057  -2.513  1.00  0.00     0.137 C 
ATOM      4  N   UNL     1      60.852  25.902  -2.802  1.00  0.00    -0.291 N 
ATOM      5  C   UNL     1      60.185  25.057  -1.795  1.00  0.00     0.102 C 
ATOM      6  C   UNL     1      59.031  26.092  -1.782  1.00  0.00     0.106 C 
ATOM      7  C   UNL     1      59.995  26.957  -2.608  1.00  0.00     0.238 C 
ATOM      8  O   UNL     1      60.077  28.129  -2.891  1.00  0.00    -0.274 OA
ENDROOT
BRANCH   3   9
ATOM      9  C   UNL     1      63.086  26.698  -3.508  1.00  0.00     0.355 C 
ATOM     10  O   UNL     1      63.342  26.217  -4.602  1.00  0.00    -0.244 OA
BRANCH   9  11
ATOM     11  O   UNL     1      63.577  27.865  -3.022  1.00  0.00    -0.457 OA
BRANCH  11  12
ATOM     12  C   UNL     1      64.392  28.575  -3.958  1.00  0.00     0.110 C 
BRANCH  12  13
ATOM     13  C   UNL     1      63.839  29.964  -4.056  1.00  0.00    -0.054 C 
ATOM     14  C   UNL     1      62.798  30.422  -3.349  1.00  0.00    -0.100 C 
ENDBRANCH  12  13
ENDBRANCH  11  12
ENDBRANCH   9  11
ENDBRANCH   3   9
BRANCH   6  15
ATOM     15  C   UNL     1      58.536  26.708  -0.480  1.00  0.00     0.113 C 
ATOM     16  C   UNL     1      57.598  27.876  -0.780  1.00  0.00    -0.027 C 
BRANCH  15  17
ATOM     17  O   UNL     1      57.772  25.687   0.203  1.00  0.00    -0.462 OA
BRANCH  17  18
ATOM     18  C   UNL     1      57.478  25.707   1.526  1.00  0.00     0.302 C 
ATOM     19  O   UNL     1      56.341  25.966   1.907  1.00  0.00    -0.253 OA
ATOM     20  C   UNL     1      58.578  25.382   2.491  1.00  0.00     0.034 C 
ENDBRANCH  17  18
ENDBRANCH  15  17
ENDBRANCH   6  15
TORSDOF 7
ENDMDL
MODEL 18
REMARK VINA RESULT:    -4.928      4.656      8.776
REMARK INTER + INTRA:          -7.102
REMARK INTER:                  -6.845
REMARK INTRA:                  -0.258
REMARK UNBOUND:                -0.158
REMARK SMILES C=CCOC(=O)C1=CS[C@H]2[C@@H]([C@@H](C)OC(C)=O)C(=O)N12
REMARK SMILES IDX 9 1 8 2 7 3 20 4 10 5 11 6 18 7 19 8 5 9 6 10 4 11 3 12 2 13
REMARK SMILES IDX 1 14 12 15 13 16 14 17 15 18 17 19 16 20
REMARK H PARENT
REMARK Flexibility Score: inf
ROOT
ATOM      1  S   UNL     1      66.066  25.690   4.764  1.00  0.00    -0.105 SA
ATOM      2  C   UNL     1      65.153  24.989   6.090  1.00  0.00     0.004 C 
ATOM      3  C   UNL     1      64.261  24.050   5.758  1.00  0.00     0.137 C 
ATOM      4  N   UNL     1      64.135  23.809   4.412  1.00  0.00    -0.291 N 
ATOM      5  C   UNL     1      64.866  24.816   3.622  1.00  0.00     0.102 C 
ATOM      6  C   UNL     1      65.411  23.651   2.758  1.00  0.00     0.106 C 
ATOM      7  C   UNL     1      64.811  22.754   3.852  1.00  0.00     0.238 C 
ATOM      8  O   UNL     1      64.950  21.605   4.199  1.00  0.00    -0.274 OA
ENDROOT
BRANCH   3   9
ATOM      9  C   UNL     1      63.434  23.279   6.726  1.00  0.00     0.355 C 
ATOM     10  O   UNL     1      62.247  23.038   6.564  1.00  0.00    -0.244 OA
BRANCH   9  11
ATOM     11  O   UNL     1      64.180  22.905   7.795  1.00  0.00    -0.457 OA
BRANCH  11  12
ATOM     12  C   UNL     1      63.690  21.734   8.451  1.00  0.00     0.110 C 
BRANCH  12  13
ATOM     13  C   UNL     1      63.391  22.117   9.869  1.00  0.00    -0.054 C 
ATOM     14  C   UNL     1      64.283  22.100  10.868  1.00  0.00    -0.100 C 
ENDBRANCH  12  13
ENDBRANCH  11  12
ENDBRANCH   9  11
ENDBRANCH   3   9
BRANCH   6  15
ATOM     15  C   UNL     1      66.904  23.483   2.508  1.00  0.00     0.113 C 
ATOM     16  C   UNL     1      67.150  22.271   1.611  1.00  0.00    -0.027 C 
BRANCH  15  17
ATOM     17  O   UNL     1      67.345  24.662   1.794  1.00  0.00    -0.462 OA
BRANCH  17  18
ATOM     18  C   UNL     1      68.622  25.115   1.778  1.00  0.00     0.302 C 
ATOM     19  O   UNL     1      69.088  25.626   0.764  1.00  0.00    -0.253 OA
ATOM     20  C   UNL     1      69.425  24.988   3.037  1.00  0.00     0.034 C 
ENDBRANCH  17  18
ENDBRANCH  15  17
ENDBRANCH   6  15
TORSDOF 7
ENDMDL
MODEL 19
REMARK VINA RESULT:    -4.904     14.647     16.030
REMARK INTER + INTRA:          -7.068
REMARK INTER:                  -6.539
REMARK INTRA:                  -0.530
REMARK UNBOUND:                -0.158
REMARK SMILES C=CCOC(=O)C1=CS[C@H]2[C@@H]([C@@H](C)OC(C)=O)C(=O)N12
REMARK SMILES IDX 9 1 8 2 7 3 20 4 10 5 11 6 18 7 19 8 5 9 6 10 4 11 3 12 2 13
REMARK SMILES IDX 1 14 12 15 13 16 14 17 15 18 17 19 16 20
REMARK H PARENT
REMARK Flexibility Score: inf
ROOT
ATOM      1  S   UNL     1      58.706  25.177  -1.312  1.00  0.00    -0.105 SA
ATOM      2  C   UNL     1      60.410  25.506  -1.579  1.00  0.00     0.004 C 
ATOM      3  C   UNL     1      60.703  26.701  -2.102  1.00  0.00     0.137 C 
ATOM      4  N   UNL     1      59.622  27.483  -2.422  1.00  0.00    -0.291 N 
ATOM      5  C   UNL     1      58.365  26.721  -2.316  1.00  0.00     0.102 C 
ATOM      6  C   UNL     1      57.759  27.941  -1.578  1.00  0.00     0.106 C 
ATOM      7  C   UNL     1      59.209  28.451  -1.541  1.00  0.00     0.238 C 
ATOM      8  O   UNL     1      59.816  29.282  -0.908  1.00  0.00    -0.274 OA
ENDROOT
BRANCH   3   9
ATOM      9  C   UNL     1      62.080  27.210  -2.344  1.00  0.00     0.355 C 
ATOM     10  O   UNL     1      63.028  26.983  -1.607  1.00  0.00    -0.244 OA
BRANCH   9  11
ATOM     11  O   UNL     1      62.118  27.956  -3.476  1.00  0.00    -0.457 OA
BRANCH  11  12
ATOM     12  C   UNL     1      62.950  29.113  -3.369  1.00  0.00     0.110 C 
BRANCH  12  13
ATOM     13  C   UNL     1      62.082  30.306  -3.633  1.00  0.00    -0.054 C 
ATOM     14  C   UNL     1      60.946  30.279  -4.343  1.00  0.00    -0.100 C 
ENDBRANCH  12  13
ENDBRANCH  11  12
ENDBRANCH   9  11
ENDBRANCH   3   9
BRANCH   6  15
ATOM     15  C   UNL     1      57.075  27.790  -0.226  1.00  0.00     0.113 C 
ATOM     16  C   UNL     1      56.639  29.158   0.295  1.00  0.00    -0.027 C 
BRANCH  15  17
ATOM     17  O   UNL     1      55.884  26.996  -0.445  1.00  0.00    -0.462 OA
BRANCH  17  18
ATOM     18  C   UNL     1      55.401  26.083   0.430  1.00  0.00     0.302 C 
ATOM     19  O   UNL     1      55.973  25.879   1.497  1.00  0.00    -0.253 OA
ATOM     20  C   UNL     1      54.144  25.356   0.060  1.00  0.00     0.034 C 
ENDBRANCH  17  18
ENDBRANCH  15  17
ENDBRANCH   6  15
TORSDOF 7
ENDMDL
MODEL 20
REMARK VINA RESULT:    -4.884     14.699     16.157
REMARK INTER + INTRA:          -7.040
REMARK INTER:                  -6.579
REMARK INTRA:                  -0.461
REMARK UNBOUND:                -0.158
REMARK SMILES C=CCOC(=O)C1=CS[C@H]2[C@@H]([C@@H](C)OC(C)=O)C(=O)N12
REMARK SMILES IDX 9 1 8 2 7 3 20 4 10 5 11 6 18 7 19 8 5 9 6 10 4 11 3 12 2 13
REMARK SMILES IDX 1 14 12 15 13 16 14 17 15 18 17 19 16 20
REMARK H PARENT
REMARK Flexibility Score: inf
ROOT
ATOM      1  S   UNL     1      61.716  26.409  -1.645  1.00  0.00    -0.105 SA
ATOM      2  C   UNL     1      60.257  25.456  -1.430  1.00  0.00     0.004 C 
ATOM      3  C   UNL     1      59.139  26.143  -1.175  1.00  0.00     0.137 C 
ATOM      4  N   UNL     1      59.299  27.500  -1.049  1.00  0.00    -0.291 N 
ATOM      5  C   UNL     1      60.726  27.865  -1.007  1.00  0.00     0.102 C 
ATOM      6  C   UNL     1      60.401  29.007  -2.002  1.00  0.00     0.106 C 
ATOM      7  C   UNL     1      59.037  28.310  -2.126  1.00  0.00     0.238 C 
ATOM      8  O   UNL     1      58.122  28.337  -2.916  1.00  0.00    -0.274 OA
ENDROOT
BRANCH   3   9
ATOM      9  C   UNL     1      57.785  25.543  -1.028  1.00  0.00     0.355 C 
ATOM     10  O   UNL     1      57.251  24.853  -1.883  1.00  0.00    -0.244 OA
BRANCH   9  11
ATOM     11  O   UNL     1      57.242  25.881   0.169  1.00  0.00    -0.457 OA
BRANCH  11  12
ATOM     12  C   UNL     1      56.076  26.700   0.056  1.00  0.00     0.110 C 
BRANCH  12  13
ATOM     13  C   UNL     1      56.306  27.912   0.906  1.00  0.00    -0.054 C 
ATOM     14  C   UNL     1      56.288  29.174   0.456  1.00  0.00    -0.100 C 
ENDBRANCH  12  13
ENDBRANCH  11  12
ENDBRANCH   9  11
ENDBRANCH   3   9
BRANCH   6  15
ATOM     15  C   UNL     1      61.181  29.174  -3.299  1.00  0.00     0.113 C 
ATOM     16  C   UNL     1      60.537  30.258  -4.160  1.00  0.00    -0.027 C 
BRANCH  15  17
ATOM     17  O   UNL     1      62.508  29.622  -2.936  1.00  0.00    -0.462 OA
BRANCH  17  18
ATOM     18  C   UNL     1      63.582  29.586  -3.760  1.00  0.00     0.302 C 
ATOM     19  O   UNL     1      64.186  30.616  -4.042  1.00  0.00    -0.253 OA
ATOM     20  C   UNL     1      64.011  28.251  -4.291  1.00  0.00     0.034 C 
ENDBRANCH  17  18
ENDBRANCH  15  17
ENDBRANCH   6  15
TORSDOF 7
ENDMDL
