REMARK SMILES C=CCO[C]([O-])C1=CS[C@H]2[C@@H]([C@@H](C)O[C](C)[O-])C(=O)N12
REMARK SMILES IDX 9 1 19 2 20 3 11 4 10 5 18 6 7 7 8 8 12 9 13 10 14 11 15 12
REMARK SMILES IDX 17 13 16 14 5 15 6 16 4 17 3 18 2 19 1 20
REMARK H PARENT
REMARK Flexibility Score: inf
ROOT
ATOM      1  S   UNL     1      -1.746  -5.291   1.909  1.00  0.00    -0.106 SA
ATOM      2  O   UNL     1      -2.391  -1.001   0.665  1.00  0.00    -0.274 OA
ATOM      3  N   UNL     1      -1.336  -3.106   0.485  1.00  0.00    -0.300 N 
ATOM      4  C   UNL     1      -3.401  -3.350   0.561  1.00  0.00     0.095 C 
ATOM      5  C   UNL     1      -2.199  -4.301   0.427  1.00  0.00     0.101 C 
ATOM      6  C   UNL     1      -2.360  -2.204   0.547  1.00  0.00     0.236 C 
ATOM      7  C   UNL     1      -0.324  -3.207   1.401  1.00  0.00     0.046 C 
ATOM      8  C   UNL     1      -0.353  -4.284   2.196  1.00  0.00    -0.006 C 
ENDROOT
BRANCH   4   9
ATOM      9  C   UNL     1      -4.172  -3.475   1.853  1.00  0.00     0.068 C 
ATOM     10  C   UNL     1      -5.004  -2.226   2.123  1.00  0.00    -0.038 C 
BRANCH   9  11
ATOM     11  O   UNL     1      -5.040  -4.606   1.781  1.00  0.00    -0.387 OA
BRANCH  11  12
ATOM     12  C   UNL     1      -5.400  -5.150   2.979  1.00  0.00     0.005 C 
ATOM     13  O   UNL     1      -4.895  -4.906   4.067  1.00  0.00    -0.828 OA
ATOM     14  C   UNL     1      -6.532  -6.112   2.777  1.00  0.00    -0.050 C 
ENDBRANCH  11  12
ENDBRANCH   9  11
ENDBRANCH   4   9
BRANCH   7  15
ATOM     15  C   UNL     1       0.673  -2.156   1.546  1.00  0.00     0.057 C 
ATOM     16  O   UNL     1       0.702  -1.364   2.480  1.00  0.00    -0.822 OA
BRANCH  15  17
ATOM     17  O   UNL     1       1.533  -2.213   0.494  1.00  0.00    -0.380 OA
BRANCH  17  18
ATOM     18  C   UNL     1       2.751  -1.478   0.646  1.00  0.00     0.064 C 
BRANCH  18  19
ATOM     19  C   UNL     1       3.485  -1.489  -0.653  1.00  0.00    -0.066 C 
ATOM     20  C   UNL     1       4.128  -0.430  -1.157  1.00  0.00    -0.101 C 
ENDBRANCH  18  19
ENDBRANCH  17  18
ENDBRANCH  15  17
ENDBRANCH   7  15
TORSDOF 7
