MODEL 1
REMARK VINA RESULT:    -8.621      0.000      0.000
REMARK INTER + INTRA:         -10.291
REMARK INTER:                  -9.727
REMARK INTRA:                  -0.564
REMARK UNBOUND:                -0.158
REMARK SMILES O=C(Nc1ccc2c(c1)OC(F)(F)O2)Nc1ccc(Cl)c(C(F)(F)F)c1
REMARK SMILES IDX 20 1 16 2 21 3 26 4 17 5 19 6 18 7 22 8 23 9 24 10 25 11
REMARK SMILES IDX 15 12 2 13 1 15 3 16 4 18 9 19 5 20 8 21 6 22 10 23 7 24
REMARK SMILES IDX 11 25 14 26 12 27 13 28
REMARK H PARENT 15 14 3 17
REMARK Flexibility Score: inf
ROOT
ATOM      1  Cl  UNL     1      -5.175  -8.790  -1.368  1.00  0.00    -0.084 Cl
ATOM      2  C   UNL     1      -6.120  -4.379  -1.595  1.00  0.00     0.043 A 
ATOM      3  C   UNL     1      -5.643  -6.467  -2.715  1.00  0.00     0.076 A 
ATOM      4  C   UNL     1      -5.936  -5.105  -2.772  1.00  0.00     0.040 A 
ATOM      5  C   UNL     1      -6.011  -5.018  -0.359  1.00  0.00     0.028 A 
ATOM      6  C   UNL     1      -5.534  -7.105  -1.479  1.00  0.00     0.053 A 
ATOM      7  C   UNL     1      -5.718  -6.380  -0.301  1.00  0.00     0.023 A 
ENDROOT
BRANCH   3   8
ATOM      8  C   UNL     1      -5.456  -7.208  -3.999  1.00  0.00     0.417 C 
ATOM      9  F   UNL     1      -4.202  -7.731  -4.121  1.00  0.00    -0.166 F 
ATOM     10  F   UNL     1      -6.310  -8.261  -4.149  1.00  0.00    -0.166 F 
ATOM     11  F   UNL     1      -5.643  -6.434  -5.106  1.00  0.00    -0.166 F 
ENDBRANCH   3   8
BRANCH   2  12
ATOM     12  N   UNL     1      -6.416  -2.998  -1.654  1.00  0.00    -0.308 N 
ATOM     13  C   UNL     1      -7.675  -2.380  -1.575  1.00  0.00     0.323 C 
ATOM     14  H   UNL     1      -5.614  -2.385  -1.766  1.00  0.00     0.171 HD
ATOM     15  O   UNL     1      -8.745  -2.964  -1.439  1.00  0.00    -0.248 OA
ATOM     16  N   UNL     1      -7.530  -0.974  -1.676  1.00  0.00    -0.308 N 
ATOM     17  H   UNL     1      -6.579  -0.631  -1.786  1.00  0.00     0.171 HD
BRANCH  16  18
ATOM     18  C   UNL     1      -8.522   0.008  -1.645  1.00  0.00     0.046 A 
ATOM     19  C   UNL     1      -8.989   0.481  -0.417  1.00  0.00     0.077 A 
ATOM     20  C   UNL     1      -9.042   0.510  -2.851  1.00  0.00     0.030 A 
ATOM     21  C   UNL     1      -9.969   1.453  -0.437  1.00  0.00     0.174 A 
ATOM     22  C   UNL     1     -10.034   1.493  -2.844  1.00  0.00     0.053 A 
ATOM     23  O   UNL     1     -10.542   2.031   0.656  1.00  0.00    -0.395 OA
ATOM     24  C   UNL     1     -10.478   1.945  -1.618  1.00  0.00     0.172 A 
ATOM     25  C   UNL     1     -11.460   2.931   0.019  1.00  0.00     0.586 C 
ATOM     26  O   UNL     1     -11.434   2.893  -1.416  1.00  0.00    -0.395 OA
ATOM     27  F   UNL     1     -11.179   4.194   0.424  1.00  0.00    -0.125 F 
ATOM     28  F   UNL     1     -12.716   2.637   0.437  1.00  0.00    -0.125 F 
ENDBRANCH  16  18
ENDBRANCH   2  12
TORSDOF 3
ENDMDL
MODEL 2
REMARK VINA RESULT:    -8.422      0.931      1.769
REMARK INTER + INTRA:         -10.057
REMARK INTER:                  -9.628
REMARK INTRA:                  -0.429
REMARK UNBOUND:                -0.158
REMARK SMILES O=C(Nc1ccc2c(c1)OC(F)(F)O2)Nc1ccc(Cl)c(C(F)(F)F)c1
REMARK SMILES IDX 20 1 16 2 21 3 26 4 17 5 19 6 18 7 22 8 23 9 24 10 25 11
REMARK SMILES IDX 15 12 2 13 1 15 3 16 4 18 9 19 5 20 8 21 6 22 10 23 7 24
REMARK SMILES IDX 11 25 14 26 12 27 13 28
REMARK H PARENT 15 14 3 17
REMARK Flexibility Score: inf
ROOT
ATOM      1  Cl  UNL     1      -5.385  -9.222  -1.943  1.00  0.00    -0.084 Cl
ATOM      2  C   UNL     1      -5.946  -4.757  -1.564  1.00  0.00     0.043 A 
ATOM      3  C   UNL     1      -5.631  -6.704  -2.959  1.00  0.00     0.076 A 
ATOM      4  C   UNL     1      -5.805  -5.327  -2.829  1.00  0.00     0.040 A 
ATOM      5  C   UNL     1      -5.912  -5.565  -0.427  1.00  0.00     0.028 A 
ATOM      6  C   UNL     1      -5.597  -7.513  -1.822  1.00  0.00     0.053 A 
ATOM      7  C   UNL     1      -5.738  -6.943  -0.557  1.00  0.00     0.023 A 
ENDROOT
BRANCH   3   8
ATOM      8  C   UNL     1      -5.485  -7.276  -4.332  1.00  0.00     0.417 C 
ATOM      9  F   UNL     1      -6.370  -8.286  -4.573  1.00  0.00    -0.166 F 
ATOM     10  F   UNL     1      -5.689  -6.363  -5.326  1.00  0.00    -0.166 F 
ATOM     11  F   UNL     1      -4.251  -7.801  -4.575  1.00  0.00    -0.166 F 
ENDBRANCH   3   8
BRANCH   2  12
ATOM     12  N   UNL     1      -6.122  -3.360  -1.433  1.00  0.00    -0.308 N 
ATOM     13  C   UNL     1      -7.228  -2.673  -0.906  1.00  0.00     0.323 C 
ATOM     14  H   UNL     1      -5.347  -2.790  -1.762  1.00  0.00     0.171 HD
ATOM     15  O   UNL     1      -8.245  -3.199  -0.464  1.00  0.00    -0.248 OA
ATOM     16  N   UNL     1      -7.000  -1.276  -0.957  1.00  0.00    -0.308 N 
ATOM     17  H   UNL     1      -6.108  -0.985  -1.351  1.00  0.00     0.171 HD
BRANCH  16  18
ATOM     18  C   UNL     1      -7.838  -0.241  -0.540  1.00  0.00     0.046 A 
ATOM     19  C   UNL     1      -8.991   0.053  -1.269  1.00  0.00     0.077 A 
ATOM     20  C   UNL     1      -7.511   0.496   0.613  1.00  0.00     0.030 A 
ATOM     21  C   UNL     1      -9.789   1.084  -0.817  1.00  0.00     0.174 A 
ATOM     22  C   UNL     1      -8.335   1.535   1.049  1.00  0.00     0.053 A 
ATOM     23  O   UNL     1     -10.946   1.511  -1.396  1.00  0.00    -0.395 OA
ATOM     24  C   UNL     1      -9.470   1.806   0.312  1.00  0.00     0.172 A 
ATOM     25  C   UNL     1     -11.303   2.575  -0.502  1.00  0.00     0.586 C 
ATOM     26  O   UNL     1     -10.385   2.777   0.583  1.00  0.00    -0.395 OA
ATOM     27  F   UNL     1     -12.531   2.315   0.012  1.00  0.00    -0.125 F 
ATOM     28  F   UNL     1     -11.393   3.727  -1.212  1.00  0.00    -0.125 F 
ENDBRANCH  16  18
ENDBRANCH   2  12
TORSDOF 3
ENDMDL
MODEL 3
REMARK VINA RESULT:    -8.102      3.709      9.691
REMARK INTER + INTRA:          -9.680
REMARK INTER:                  -9.142
REMARK INTRA:                  -0.539
REMARK UNBOUND:                -0.158
REMARK SMILES O=C(Nc1ccc2c(c1)OC(F)(F)O2)Nc1ccc(Cl)c(C(F)(F)F)c1
REMARK SMILES IDX 20 1 16 2 21 3 26 4 17 5 19 6 18 7 22 8 23 9 24 10 25 11
REMARK SMILES IDX 15 12 2 13 1 15 3 16 4 18 9 19 5 20 8 21 6 22 10 23 7 24
REMARK SMILES IDX 11 25 14 26 12 27 13 28
REMARK H PARENT 15 14 3 17
REMARK Flexibility Score: inf
ROOT
ATOM      1  Cl  UNL     1      -9.360   2.419   0.720  1.00  0.00    -0.084 Cl
ATOM      2  C   UNL     1      -7.090  -1.207  -0.727  1.00  0.00     0.043 A 
ATOM      3  C   UNL     1      -8.673   0.567  -1.158  1.00  0.00     0.076 A 
ATOM      4  C   UNL     1      -7.966  -0.554  -1.594  1.00  0.00     0.040 A 
ATOM      5  C   UNL     1      -6.921  -0.740   0.576  1.00  0.00     0.028 A 
ATOM      6  C   UNL     1      -8.504   1.034   0.145  1.00  0.00     0.053 A 
ATOM      7  C   UNL     1      -7.628   0.381   1.012  1.00  0.00     0.023 A 
ENDROOT
BRANCH   3   8
ATOM      8  C   UNL     1      -9.600   1.240  -2.118  1.00  0.00     0.417 C 
ATOM      9  F   UNL     1      -9.176   2.489  -2.464  1.00  0.00    -0.166 F 
ATOM     10  F   UNL     1      -9.751   0.563  -3.294  1.00  0.00    -0.166 F 
ATOM     11  F   UNL     1     -10.864   1.400  -1.632  1.00  0.00    -0.166 F 
ENDBRANCH   3   8
BRANCH   2  12
ATOM     12  N   UNL     1      -6.374  -2.344  -1.170  1.00  0.00    -0.308 N 
ATOM     13  C   UNL     1      -6.746  -3.694  -1.062  1.00  0.00     0.323 C 
ATOM     14  H   UNL     1      -5.484  -2.150  -1.620  1.00  0.00     0.171 HD
ATOM     15  O   UNL     1      -7.782  -4.107  -0.552  1.00  0.00    -0.248 OA
ATOM     16  N   UNL     1      -5.744  -4.518  -1.634  1.00  0.00    -0.308 N 
ATOM     17  H   UNL     1      -4.938  -4.034  -2.021  1.00  0.00     0.171 HD
BRANCH  16  18
ATOM     18  C   UNL     1      -5.715  -5.909  -1.736  1.00  0.00     0.046 A 
ATOM     19  C   UNL     1      -6.018  -6.520  -2.955  1.00  0.00     0.077 A 
ATOM     20  C   UNL     1      -5.382  -6.683  -0.610  1.00  0.00     0.030 A 
ATOM     21  C   UNL     1      -5.975  -7.899  -3.008  1.00  0.00     0.174 A 
ATOM     22  C   UNL     1      -5.347  -8.077  -0.691  1.00  0.00     0.053 A 
ATOM     23  O   UNL     1      -6.237  -8.663  -4.105  1.00  0.00    -0.395 OA
ATOM     24  C   UNL     1      -5.648  -8.657  -1.906  1.00  0.00     0.172 A 
ATOM     25  C   UNL     1      -6.039  -9.975  -3.557  1.00  0.00     0.586 C 
ATOM     26  O   UNL     1      -5.665  -9.992  -2.171  1.00  0.00    -0.395 OA
ATOM     27  F   UNL     1      -5.074 -10.602  -4.274  1.00  0.00    -0.125 F 
ATOM     28  F   UNL     1      -7.185 -10.685  -3.705  1.00  0.00    -0.125 F 
ENDBRANCH  16  18
ENDBRANCH   2  12
TORSDOF 3
ENDMDL
MODEL 4
REMARK VINA RESULT:    -7.993      3.463      4.545
REMARK INTER + INTRA:          -9.553
REMARK INTER:                  -9.055
REMARK INTRA:                  -0.498
REMARK UNBOUND:                -0.158
REMARK SMILES O=C(Nc1ccc2c(c1)OC(F)(F)O2)Nc1ccc(Cl)c(C(F)(F)F)c1
REMARK SMILES IDX 20 1 16 2 21 3 26 4 17 5 19 6 18 7 22 8 23 9 24 10 25 11
REMARK SMILES IDX 15 12 2 13 1 15 3 16 4 18 9 19 5 20 8 21 6 22 10 23 7 24
REMARK SMILES IDX 11 25 14 26 12 27 13 28
REMARK H PARENT 15 14 3 17
REMARK Flexibility Score: inf
ROOT
ATOM      1  Cl  UNL     1      -4.582  -5.122  -0.697  1.00  0.00    -0.084 Cl
ATOM      2  C   UNL     1      -8.002  -2.173  -0.761  1.00  0.00     0.043 A 
ATOM      3  C   UNL     1      -6.479  -3.568   0.493  1.00  0.00     0.076 A 
ATOM      4  C   UNL     1      -7.534  -2.656   0.461  1.00  0.00     0.040 A 
ATOM      5  C   UNL     1      -7.414  -2.602  -1.951  1.00  0.00     0.028 A 
ATOM      6  C   UNL     1      -5.891  -3.997  -0.697  1.00  0.00     0.053 A 
ATOM      7  C   UNL     1      -6.359  -3.513  -1.919  1.00  0.00     0.023 A 
ENDROOT
BRANCH   3   8
ATOM      8  C   UNL     1      -6.006  -4.060   1.823  1.00  0.00     0.417 C 
ATOM      9  F   UNL     1      -6.520  -3.339   2.860  1.00  0.00    -0.166 F 
ATOM     10  F   UNL     1      -6.344  -5.358   2.075  1.00  0.00    -0.166 F 
ATOM     11  F   UNL     1      -4.651  -4.008   1.972  1.00  0.00    -0.166 F 
ENDBRANCH   3   8
BRANCH   2  12
ATOM     12  N   UNL     1      -9.072  -1.249  -0.793  1.00  0.00    -0.308 N 
ATOM     13  C   UNL     1      -9.005   0.153  -0.750  1.00  0.00     0.323 C 
ATOM     14  H   UNL     1     -10.000  -1.660  -0.856  1.00  0.00     0.171 HD
ATOM     15  O   UNL     1      -7.973   0.812  -0.675  1.00  0.00    -0.248 OA
ATOM     16  N   UNL     1     -10.310   0.701  -0.806  1.00  0.00    -0.308 N 
ATOM     17  H   UNL     1     -11.072   0.031  -0.867  1.00  0.00     0.171 HD
BRANCH  16  18
ATOM     18  C   UNL     1     -10.692   2.044  -0.789  1.00  0.00     0.046 A 
ATOM     19  C   UNL     1     -11.106   2.661  -1.971  1.00  0.00     0.077 A 
ATOM     20  C   UNL     1     -10.655   2.762   0.420  1.00  0.00     0.030 A 
ATOM     21  C   UNL     1     -11.475   3.989  -1.904  1.00  0.00     0.174 A 
ATOM     22  C   UNL     1     -11.033   4.105   0.460  1.00  0.00     0.053 A 
ATOM     23  O   UNL     1     -11.904   4.751  -2.948  1.00  0.00    -0.395 OA
ATOM     24  C   UNL     1     -11.440   4.693  -0.721  1.00  0.00     0.172 A 
ATOM     25  C   UNL     1     -12.126   6.001  -2.280  1.00  0.00     0.586 C 
ATOM     26  O   UNL     1     -11.841   5.984  -0.873  1.00  0.00    -0.395 OA
ATOM     27  F   UNL     1     -13.423   6.361  -2.455  1.00  0.00    -0.125 F 
ATOM     28  F   UNL     1     -11.356   6.951  -2.867  1.00  0.00    -0.125 F 
ENDBRANCH  16  18
ENDBRANCH   2  12
TORSDOF 3
ENDMDL
MODEL 5
REMARK VINA RESULT:    -7.903      3.804      9.653
REMARK INTER + INTRA:          -9.448
REMARK INTER:                  -9.194
REMARK INTRA:                  -0.253
REMARK UNBOUND:                -0.158
REMARK SMILES O=C(Nc1ccc2c(c1)OC(F)(F)O2)Nc1ccc(Cl)c(C(F)(F)F)c1
REMARK SMILES IDX 20 1 16 2 21 3 26 4 17 5 19 6 18 7 22 8 23 9 24 10 25 11
REMARK SMILES IDX 15 12 2 13 1 15 3 16 4 18 9 19 5 20 8 21 6 22 10 23 7 24
REMARK SMILES IDX 11 25 14 26 12 27 13 28
REMARK H PARENT 15 14 3 17
REMARK Flexibility Score: inf
ROOT
ATOM      1  Cl  UNL     1      -7.633   2.011   1.452  1.00  0.00    -0.084 Cl
ATOM      2  C   UNL     1      -7.307  -2.349   0.320  1.00  0.00     0.043 A 
ATOM      3  C   UNL     1      -8.275  -0.167  -0.056  1.00  0.00     0.076 A 
ATOM      4  C   UNL     1      -8.166  -1.515  -0.397  1.00  0.00     0.040 A 
ATOM      5  C   UNL     1      -6.558  -1.834   1.378  1.00  0.00     0.028 A 
ATOM      6  C   UNL     1      -7.526   0.348   1.002  1.00  0.00     0.053 A 
ATOM      7  C   UNL     1      -6.667  -0.486   1.719  1.00  0.00     0.023 A 
ENDROOT
BRANCH   3   8
ATOM      8  C   UNL     1      -9.204   0.694  -0.850  1.00  0.00     0.417 C 
ATOM      9  F   UNL     1      -8.589   1.804  -1.348  1.00  0.00    -0.166 F 
ATOM     10  F   UNL     1      -9.746   0.058  -1.929  1.00  0.00    -0.166 F 
ATOM     11  F   UNL     1     -10.269   1.152  -0.132  1.00  0.00    -0.166 F 
ENDBRANCH   3   8
BRANCH   2  12
ATOM     12  N   UNL     1      -7.198  -3.716  -0.026  1.00  0.00    -0.308 N 
ATOM     13  C   UNL     1      -6.774  -4.267  -1.246  1.00  0.00     0.323 C 
ATOM     14  H   UNL     1      -7.459  -4.372   0.705  1.00  0.00     0.171 HD
ATOM     15  O   UNL     1      -6.422  -3.626  -2.231  1.00  0.00    -0.248 OA
ATOM     16  N   UNL     1      -6.810  -5.682  -1.175  1.00  0.00    -0.308 N 
ATOM     17  H   UNL     1      -7.123  -6.076  -0.291  1.00  0.00     0.171 HD
BRANCH  16  18
ATOM     18  C   UNL     1      -6.472  -6.612  -2.160  1.00  0.00     0.046 A 
ATOM     19  C   UNL     1      -5.263  -6.484  -2.847  1.00  0.00     0.077 A 
ATOM     20  C   UNL     1      -7.353  -7.669  -2.450  1.00  0.00     0.030 A 
ATOM     21  C   UNL     1      -4.972  -7.427  -3.811  1.00  0.00     0.174 A 
ATOM     22  C   UNL     1      -7.034  -8.611  -3.431  1.00  0.00     0.053 A 
ATOM     23  O   UNL     1      -3.847  -7.464  -4.578  1.00  0.00    -0.395 OA
ATOM     24  C   UNL     1      -5.834  -8.463  -4.095  1.00  0.00     0.172 A 
ATOM     25  C   UNL     1      -4.111  -8.633  -5.367  1.00  0.00     0.586 C 
ATOM     26  O   UNL     1      -5.359  -9.279  -5.076  1.00  0.00    -0.395 OA
ATOM     27  F   UNL     1      -3.106  -9.523  -5.171  1.00  0.00    -0.125 F 
ATOM     28  F   UNL     1      -4.098  -8.284  -6.677  1.00  0.00    -0.125 F 
ENDBRANCH  16  18
ENDBRANCH   2  12
TORSDOF 3
ENDMDL
MODEL 6
REMARK VINA RESULT:    -7.901      3.509      9.879
REMARK INTER + INTRA:          -9.445
REMARK INTER:                  -8.862
REMARK INTRA:                  -0.582
REMARK UNBOUND:                -0.158
REMARK SMILES O=C(Nc1ccc2c(c1)OC(F)(F)O2)Nc1ccc(Cl)c(C(F)(F)F)c1
REMARK SMILES IDX 20 1 16 2 21 3 26 4 17 5 19 6 18 7 22 8 23 9 24 10 25 11
REMARK SMILES IDX 15 12 2 13 1 15 3 16 4 18 9 19 5 20 8 21 6 22 10 23 7 24
REMARK SMILES IDX 11 25 14 26 12 27 13 28
REMARK H PARENT 15 14 3 17
REMARK Flexibility Score: inf
ROOT
ATOM      1  Cl  UNL     1     -10.803   2.894  -1.969  1.00  0.00    -0.084 Cl
ATOM      2  C   UNL     1      -7.907  -0.570  -1.886  1.00  0.00     0.043 A 
ATOM      3  C   UNL     1      -8.982   1.273  -0.751  1.00  0.00     0.076 A 
ATOM      4  C   UNL     1      -8.090   0.200  -0.737  1.00  0.00     0.040 A 
ATOM      5  C   UNL     1      -8.615  -0.267  -3.049  1.00  0.00     0.028 A 
ATOM      6  C   UNL     1      -9.690   1.576  -1.914  1.00  0.00     0.053 A 
ATOM      7  C   UNL     1      -9.506   0.805  -3.063  1.00  0.00     0.023 A 
ENDROOT
BRANCH   3   8
ATOM      8  C   UNL     1      -9.151   2.072   0.501  1.00  0.00     0.417 C 
ATOM      9  F   UNL     1      -8.337   1.644   1.507  1.00  0.00    -0.166 F 
ATOM     10  F   UNL     1      -8.873   3.398   0.341  1.00  0.00    -0.166 F 
ATOM     11  F   UNL     1     -10.417   2.029   1.006  1.00  0.00    -0.166 F 
ENDBRANCH   3   8
BRANCH   2  12
ATOM     12  N   UNL     1      -7.002  -1.657  -1.871  1.00  0.00    -0.308 N 
ATOM     13  C   UNL     1      -7.287  -3.015  -1.655  1.00  0.00     0.323 C 
ATOM     14  H   UNL     1      -6.030  -1.417  -2.040  1.00  0.00     0.171 HD
ATOM     15  O   UNL     1      -8.401  -3.481  -1.438  1.00  0.00    -0.248 OA
ATOM     16  N   UNL     1      -6.094  -3.776  -1.724  1.00  0.00    -0.308 N 
ATOM     17  H   UNL     1      -5.243  -3.253  -1.911  1.00  0.00     0.171 HD
BRANCH  16  18
ATOM     18  C   UNL     1      -5.930  -5.154  -1.568  1.00  0.00     0.046 A 
ATOM     19  C   UNL     1      -5.878  -5.977  -2.694  1.00  0.00     0.077 A 
ATOM     20  C   UNL     1      -5.818  -5.699  -0.276  1.00  0.00     0.030 A 
ATOM     21  C   UNL     1      -5.713  -7.332  -2.490  1.00  0.00     0.174 A 
ATOM     22  C   UNL     1      -5.652  -7.074  -0.097  1.00  0.00     0.053 A 
ATOM     23  O   UNL     1      -5.640  -8.282  -3.463  1.00  0.00    -0.395 OA
ATOM     24  C   UNL     1      -5.603  -7.866  -1.226  1.00  0.00     0.172 A 
ATOM     25  C   UNL     1      -5.476  -9.460  -2.660  1.00  0.00     0.586 C 
ATOM     26  O   UNL     1      -5.448  -9.218  -1.246  1.00  0.00    -0.395 OA
ATOM     27  F   UNL     1      -4.318 -10.070  -3.018  1.00  0.00    -0.125 F 
ATOM     28  F   UNL     1      -6.491 -10.317  -2.934  1.00  0.00    -0.125 F 
ENDBRANCH  16  18
ENDBRANCH   2  12
TORSDOF 3
ENDMDL
MODEL 7
REMARK VINA RESULT:    -7.833      2.206      3.124
REMARK INTER + INTRA:          -9.365
REMARK INTER:                  -9.172
REMARK INTRA:                  -0.193
REMARK UNBOUND:                -0.158
REMARK SMILES O=C(Nc1ccc2c(c1)OC(F)(F)O2)Nc1ccc(Cl)c(C(F)(F)F)c1
REMARK SMILES IDX 20 1 16 2 21 3 26 4 17 5 19 6 18 7 22 8 23 9 24 10 25 11
REMARK SMILES IDX 15 12 2 13 1 15 3 16 4 18 9 19 5 20 8 21 6 22 10 23 7 24
REMARK SMILES IDX 11 25 14 26 12 27 13 28
REMARK H PARENT 15 14 3 17
REMARK Flexibility Score: inf
ROOT
ATOM      1  Cl  UNL     1      -4.603  -5.953   0.353  1.00  0.00    -0.084 Cl
ATOM      2  C   UNL     1      -7.746  -2.820  -0.485  1.00  0.00     0.043 A 
ATOM      3  C   UNL     1      -6.235  -4.522  -1.296  1.00  0.00     0.076 A 
ATOM      4  C   UNL     1      -7.206  -3.553  -1.543  1.00  0.00     0.040 A 
ATOM      5  C   UNL     1      -7.313  -3.058   0.820  1.00  0.00     0.028 A 
ATOM      6  C   UNL     1      -5.802  -4.760   0.009  1.00  0.00     0.053 A 
ATOM      7  C   UNL     1      -6.342  -4.027   1.066  1.00  0.00     0.023 A 
ENDROOT
BRANCH   3   8
ATOM      8  C   UNL     1      -5.684  -5.286  -2.457  1.00  0.00     0.417 C 
ATOM      9  F   UNL     1      -6.018  -6.608  -2.417  1.00  0.00    -0.166 F 
ATOM     10  F   UNL     1      -6.124  -4.832  -3.666  1.00  0.00    -0.166 F 
ATOM     11  F   UNL     1      -4.323  -5.251  -2.534  1.00  0.00    -0.166 F 
ENDBRANCH   3   8
BRANCH   2  12
ATOM     12  N   UNL     1      -8.731  -1.836  -0.735  1.00  0.00    -0.308 N 
ATOM     13  C   UNL     1      -8.700  -0.475  -0.389  1.00  0.00     0.323 C 
ATOM     14  H   UNL     1      -9.558  -2.163  -1.227  1.00  0.00     0.171 HD
ATOM     15  O   UNL     1      -7.784   0.086   0.203  1.00  0.00    -0.248 OA
ATOM     16  N   UNL     1      -9.887   0.161  -0.826  1.00  0.00    -0.308 N 
ATOM     17  H   UNL     1     -10.560  -0.432  -1.305  1.00  0.00     0.171 HD
BRANCH  16  18
ATOM     18  C   UNL     1     -10.260   1.499  -0.687  1.00  0.00     0.046 A 
ATOM     19  C   UNL     1     -10.739   2.204  -1.793  1.00  0.00     0.077 A 
ATOM     20  C   UNL     1     -10.149   2.125   0.568  1.00  0.00     0.030 A 
ATOM     21  C   UNL     1     -11.096   3.524  -1.606  1.00  0.00     0.174 A 
ATOM     22  C   UNL     1     -10.517   3.462   0.731  1.00  0.00     0.053 A 
ATOM     23  O   UNL     1     -11.581   4.363  -2.563  1.00  0.00    -0.395 OA
ATOM     24  C   UNL     1     -10.988   4.136  -0.377  1.00  0.00     0.172 A 
ATOM     25  C   UNL     1     -11.757   5.559  -1.791  1.00  0.00     0.586 C 
ATOM     26  O   UNL     1     -11.390   5.437  -0.409  1.00  0.00    -0.395 OA
ATOM     27  F   UNL     1     -13.059   5.932  -1.863  1.00  0.00    -0.125 F 
ATOM     28  F   UNL     1     -11.017   6.549  -2.349  1.00  0.00    -0.125 F 
ENDBRANCH  16  18
ENDBRANCH   2  12
TORSDOF 3
ENDMDL
MODEL 8
REMARK VINA RESULT:    -7.807      2.212      3.334
REMARK INTER + INTRA:          -9.335
REMARK INTER:                  -8.804
REMARK INTRA:                  -0.531
REMARK UNBOUND:                -0.158
REMARK SMILES O=C(Nc1ccc2c(c1)OC(F)(F)O2)Nc1ccc(Cl)c(C(F)(F)F)c1
REMARK SMILES IDX 20 1 16 2 21 3 26 4 17 5 19 6 18 7 22 8 23 9 24 10 25 11
REMARK SMILES IDX 15 12 2 13 1 15 3 16 4 18 9 19 5 20 8 21 6 22 10 23 7 24
REMARK SMILES IDX 11 25 14 26 12 27 13 28
REMARK H PARENT 15 14 3 17
REMARK Flexibility Score: inf
ROOT
ATOM      1  Cl  UNL     1      -3.081  -9.915  -4.231  1.00  0.00    -0.084 Cl
ATOM      2  C   UNL     1      -5.808  -6.836  -2.364  1.00  0.00     0.043 A 
ATOM      3  C   UNL     1      -4.805  -7.805  -4.337  1.00  0.00     0.076 A 
ATOM      4  C   UNL     1      -5.644  -6.860  -3.750  1.00  0.00     0.040 A 
ATOM      5  C   UNL     1      -5.130  -7.759  -1.567  1.00  0.00     0.028 A 
ATOM      6  C   UNL     1      -4.127  -8.728  -3.539  1.00  0.00     0.053 A 
ATOM      7  C   UNL     1      -4.291  -8.704  -2.154  1.00  0.00     0.023 A 
ENDROOT
BRANCH   3   8
ATOM      8  C   UNL     1      -4.658  -7.799  -5.825  1.00  0.00     0.417 C 
ATOM      9  F   UNL     1      -5.472  -6.884  -6.425  1.00  0.00    -0.166 F 
ATOM     10  F   UNL     1      -3.395  -7.500  -6.246  1.00  0.00    -0.166 F 
ATOM     11  F   UNL     1      -4.957  -8.996  -6.406  1.00  0.00    -0.166 F 
ENDBRANCH   3   8
BRANCH   2  12
ATOM     12  N   UNL     1      -6.659  -5.876  -1.769  1.00  0.00    -0.308 N 
ATOM     13  C   UNL     1      -6.347  -4.558  -1.396  1.00  0.00     0.323 C 
ATOM     14  H   UNL     1      -7.610  -6.187  -1.594  1.00  0.00     0.171 HD
ATOM     15  O   UNL     1      -5.253  -4.021  -1.535  1.00  0.00    -0.248 OA
ATOM     16  N   UNL     1      -7.487  -3.933  -0.833  1.00  0.00    -0.308 N 
ATOM     17  H   UNL     1      -8.328  -4.503  -0.782  1.00  0.00     0.171 HD
BRANCH  16  18
ATOM     18  C   UNL     1      -7.612  -2.635  -0.336  1.00  0.00     0.046 A 
ATOM     19  C   UNL     1      -8.363  -1.693  -1.041  1.00  0.00     0.077 A 
ATOM     20  C   UNL     1      -6.978  -2.288   0.871  1.00  0.00     0.030 A 
ATOM     21  C   UNL     1      -8.459  -0.422  -0.511  1.00  0.00     0.174 A 
ATOM     22  C   UNL     1      -7.090  -0.995   1.386  1.00  0.00     0.053 A 
ATOM     23  O   UNL     1      -9.145   0.620  -1.055  1.00  0.00    -0.395 OA
ATOM     24  C   UNL     1      -7.839  -0.083   0.671  1.00  0.00     0.172 A 
ATOM     25  C   UNL     1      -8.879   1.640  -0.081  1.00  0.00     0.586 C 
ATOM     26  O   UNL     1      -8.058   1.216   1.017  1.00  0.00    -0.395 OA
ATOM     27  F   UNL     1     -10.061   2.089   0.410  1.00  0.00    -0.125 F 
ATOM     28  F   UNL     1      -8.271   2.682  -0.699  1.00  0.00    -0.125 F 
ENDBRANCH  16  18
ENDBRANCH   2  12
TORSDOF 3
ENDMDL
MODEL 9
REMARK VINA RESULT:    -7.779      3.997      5.379
REMARK INTER + INTRA:          -9.301
REMARK INTER:                  -8.724
REMARK INTRA:                  -0.577
REMARK UNBOUND:                -0.158
REMARK SMILES O=C(Nc1ccc2c(c1)OC(F)(F)O2)Nc1ccc(Cl)c(C(F)(F)F)c1
REMARK SMILES IDX 20 1 16 2 21 3 26 4 17 5 19 6 18 7 22 8 23 9 24 10 25 11
REMARK SMILES IDX 15 12 2 13 1 15 3 16 4 18 9 19 5 20 8 21 6 22 10 23 7 24
REMARK SMILES IDX 11 25 14 26 12 27 13 28
REMARK H PARENT 15 14 3 17
REMARK Flexibility Score: inf
ROOT
ATOM      1  Cl  UNL     1      -5.629  -4.081  -1.529  1.00  0.00    -0.084 Cl
ATOM      2  C   UNL     1      -8.550  -0.730  -0.731  1.00  0.00     0.043 A 
ATOM      3  C   UNL     1      -7.028  -2.409   0.107  1.00  0.00     0.076 A 
ATOM      4  C   UNL     1      -7.932  -1.373   0.342  1.00  0.00     0.040 A 
ATOM      5  C   UNL     1      -8.265  -1.125  -2.038  1.00  0.00     0.028 A 
ATOM      6  C   UNL     1      -6.743  -2.804  -1.200  1.00  0.00     0.053 A 
ATOM      7  C   UNL     1      -7.362  -2.161  -2.273  1.00  0.00     0.023 A 
ENDROOT
BRANCH   3   8
ATOM      8  C   UNL     1      -6.385  -3.071   1.284  1.00  0.00     0.417 C 
ATOM      9  F   UNL     1      -6.755  -2.503   2.467  1.00  0.00    -0.166 F 
ATOM     10  F   UNL     1      -6.692  -4.395   1.398  1.00  0.00    -0.166 F 
ATOM     11  F   UNL     1      -5.023  -3.019   1.259  1.00  0.00    -0.166 F 
ENDBRANCH   3   8
BRANCH   2  12
ATOM     12  N   UNL     1      -9.467   0.320  -0.493  1.00  0.00    -0.308 N 
ATOM     13  C   UNL     1      -9.199   1.695  -0.396  1.00  0.00     0.323 C 
ATOM     14  H   UNL     1     -10.436   0.035  -0.381  1.00  0.00     0.171 HD
ATOM     15  O   UNL     1      -8.092   2.212  -0.506  1.00  0.00    -0.248 OA
ATOM     16  N   UNL     1     -10.400   2.405  -0.151  1.00  0.00    -0.308 N 
ATOM     17  H   UNL     1     -11.245   1.842  -0.083  1.00  0.00     0.171 HD
BRANCH  16  18
ATOM     18  C   UNL     1     -10.581   3.780   0.012  1.00  0.00     0.046 A 
ATOM     19  C   UNL     1     -10.535   4.337   1.291  1.00  0.00     0.077 A 
ATOM     20  C   UNL     1     -10.810   4.590  -1.115  1.00  0.00     0.030 A 
ATOM     21  C   UNL     1     -10.719   5.700   1.403  1.00  0.00     0.174 A 
ATOM     22  C   UNL     1     -10.992   5.967  -0.975  1.00  0.00     0.053 A 
ATOM     23  O   UNL     1     -10.706   6.415   2.562  1.00  0.00    -0.395 OA
ATOM     24  C   UNL     1     -10.941   6.494   0.300  1.00  0.00     0.172 A 
ATOM     25  C   UNL     1     -10.948   7.735   2.053  1.00  0.00     0.586 C 
ATOM     26  O   UNL     1     -11.097   7.806   0.627  1.00  0.00    -0.395 OA
ATOM     27  F   UNL     1      -9.917   8.536   2.421  1.00  0.00    -0.125 F 
ATOM     28  F   UNL     1     -12.072   8.224   2.631  1.00  0.00    -0.125 F 
ENDBRANCH  16  18
ENDBRANCH   2  12
TORSDOF 3
ENDMDL
MODEL 10
REMARK VINA RESULT:    -7.738      2.790      3.695
REMARK INTER + INTRA:          -9.253
REMARK INTER:                  -8.859
REMARK INTRA:                  -0.394
REMARK UNBOUND:                -0.158
REMARK SMILES O=C(Nc1ccc2c(c1)OC(F)(F)O2)Nc1ccc(Cl)c(C(F)(F)F)c1
REMARK SMILES IDX 20 1 16 2 21 3 26 4 17 5 19 6 18 7 22 8 23 9 24 10 25 11
REMARK SMILES IDX 15 12 2 13 1 15 3 16 4 18 9 19 5 20 8 21 6 22 10 23 7 24
REMARK SMILES IDX 11 25 14 26 12 27 13 28
REMARK H PARENT 15 14 3 17
REMARK Flexibility Score: inf
ROOT
ATOM      1  Cl  UNL     1      -4.234  -4.294   0.819  1.00  0.00    -0.084 Cl
ATOM      2  C   UNL     1      -7.750  -1.729  -0.385  1.00  0.00     0.043 A 
ATOM      3  C   UNL     1      -6.221  -3.532  -0.884  1.00  0.00     0.076 A 
ATOM      4  C   UNL     1      -7.306  -2.734  -1.245  1.00  0.00     0.040 A 
ATOM      5  C   UNL     1      -7.108  -1.522   0.836  1.00  0.00     0.028 A 
ATOM      6  C   UNL     1      -5.579  -3.325   0.337  1.00  0.00     0.053 A 
ATOM      7  C   UNL     1      -6.023  -2.320   1.197  1.00  0.00     0.023 A 
ENDROOT
BRANCH   3   8
ATOM      8  C   UNL     1      -5.777  -4.599  -1.832  1.00  0.00     0.417 C 
ATOM      9  F   UNL     1      -6.209  -4.376  -3.107  1.00  0.00    -0.166 F 
ATOM     10  F   UNL     1      -4.421  -4.720  -1.919  1.00  0.00    -0.166 F 
ATOM     11  F   UNL     1      -6.228  -5.842  -1.501  1.00  0.00    -0.166 F 
ENDBRANCH   3   8
BRANCH   2  12
ATOM     12  N   UNL     1      -8.850  -0.919  -0.752  1.00  0.00    -0.308 N 
ATOM     13  C   UNL     1      -8.827   0.376  -1.295  1.00  0.00     0.323 C 
ATOM     14  H   UNL     1      -9.766  -1.334  -0.601  1.00  0.00     0.171 HD
ATOM     15  O   UNL     1      -7.815   1.024  -1.542  1.00  0.00    -0.248 OA
ATOM     16  N   UNL     1     -10.150   0.830  -1.519  1.00  0.00    -0.308 N 
ATOM     17  H   UNL     1     -10.892   0.182  -1.265  1.00  0.00     0.171 HD
BRANCH  16  18
ATOM     18  C   UNL     1     -10.574   2.052  -2.042  1.00  0.00     0.046 A 
ATOM     19  C   UNL     1     -11.095   3.027  -1.190  1.00  0.00     0.077 A 
ATOM     20  C   UNL     1     -10.473   2.290  -3.425  1.00  0.00     0.030 A 
ATOM     21  C   UNL     1     -11.501   4.220  -1.752  1.00  0.00     0.174 A 
ATOM     22  C   UNL     1     -10.890   3.506  -3.970  1.00  0.00     0.053 A 
ATOM     23  O   UNL     1     -12.030   5.280  -1.081  1.00  0.00    -0.395 OA
ATOM     24  C   UNL     1     -11.401   4.453  -3.106  1.00  0.00     0.172 A 
ATOM     25  C   UNL     1     -12.247   6.191  -2.169  1.00  0.00     0.586 C 
ATOM     26  O   UNL     1     -11.855   5.688  -3.455  1.00  0.00    -0.395 OA
ATOM     27  F   UNL     1     -11.558   7.333  -1.921  1.00  0.00    -0.125 F 
ATOM     28  F   UNL     1     -13.564   6.509  -2.211  1.00  0.00    -0.125 F 
ENDBRANCH  16  18
ENDBRANCH   2  12
TORSDOF 3
ENDMDL
MODEL 11
REMARK VINA RESULT:    -7.735      2.201      2.721
REMARK INTER + INTRA:          -9.250
REMARK INTER:                  -8.802
REMARK INTRA:                  -0.448
REMARK UNBOUND:                -0.158
REMARK SMILES O=C(Nc1ccc2c(c1)OC(F)(F)O2)Nc1ccc(Cl)c(C(F)(F)F)c1
REMARK SMILES IDX 20 1 16 2 21 3 26 4 17 5 19 6 18 7 22 8 23 9 24 10 25 11
REMARK SMILES IDX 15 12 2 13 1 15 3 16 4 18 9 19 5 20 8 21 6 22 10 23 7 24
REMARK SMILES IDX 11 25 14 26 12 27 13 28
REMARK H PARENT 15 14 3 17
REMARK Flexibility Score: inf
ROOT
ATOM      1  Cl  UNL     1      -4.920  -8.577  -0.718  1.00  0.00    -0.084 Cl
ATOM      2  C   UNL     1      -6.081  -4.297  -1.572  1.00  0.00     0.043 A 
ATOM      3  C   UNL     1      -5.483  -6.014   0.020  1.00  0.00     0.076 A 
ATOM      4  C   UNL     1      -5.842  -4.695  -0.256  1.00  0.00     0.040 A 
ATOM      5  C   UNL     1      -5.961  -5.219  -2.612  1.00  0.00     0.028 A 
ATOM      6  C   UNL     1      -5.363  -6.936  -1.020  1.00  0.00     0.053 A 
ATOM      7  C   UNL     1      -5.602  -6.538  -2.336  1.00  0.00     0.023 A 
ENDROOT
BRANCH   3   8
ATOM      8  C   UNL     1      -5.234  -6.400   1.442  1.00  0.00     0.417 C 
ATOM      9  F   UNL     1      -6.016  -7.443   1.845  1.00  0.00    -0.166 F 
ATOM     10  F   UNL     1      -3.949  -6.789   1.683  1.00  0.00    -0.166 F 
ATOM     11  F   UNL     1      -5.477  -5.393   2.329  1.00  0.00    -0.166 F 
ENDBRANCH   3   8
BRANCH   2  12
ATOM     12  N   UNL     1      -6.445  -2.959  -1.851  1.00  0.00    -0.308 N 
ATOM     13  C   UNL     1      -7.660  -2.316  -1.561  1.00  0.00     0.323 C 
ATOM     14  H   UNL     1      -5.735  -2.402  -2.318  1.00  0.00     0.171 HD
ATOM     15  O   UNL     1      -8.622  -2.834  -1.003  1.00  0.00    -0.248 OA
ATOM     16  N   UNL     1      -7.614  -0.973  -2.008  1.00  0.00    -0.308 N 
ATOM     17  H   UNL     1      -6.748  -0.681  -2.455  1.00  0.00     0.171 HD
BRANCH  16  18
ATOM     18  C   UNL     1      -8.603   0.009  -1.919  1.00  0.00     0.046 A 
ATOM     19  C   UNL     1      -9.040   0.439  -0.665  1.00  0.00     0.077 A 
ATOM     20  C   UNL     1      -9.150   0.554  -3.094  1.00  0.00     0.030 A 
ATOM     21  C   UNL     1     -10.018   1.412  -0.626  1.00  0.00     0.174 A 
ATOM     22  C   UNL     1     -10.139   1.537  -3.028  1.00  0.00     0.053 A 
ATOM     23  O   UNL     1     -10.563   1.952   0.499  1.00  0.00    -0.395 OA
ATOM     24  C   UNL     1     -10.553   1.947  -1.777  1.00  0.00     0.172 A 
ATOM     25  C   UNL     1     -11.494   2.875  -0.083  1.00  0.00     0.586 C 
ATOM     26  O   UNL     1     -11.502   2.888  -1.519  1.00  0.00    -0.395 OA
ATOM     27  F   UNL     1     -11.201   4.123   0.360  1.00  0.00    -0.125 F 
ATOM     28  F   UNL     1     -12.740   2.569   0.354  1.00  0.00    -0.125 F 
ENDBRANCH  16  18
ENDBRANCH   2  12
TORSDOF 3
ENDMDL
MODEL 12
REMARK VINA RESULT:    -7.702      4.445      9.721
REMARK INTER + INTRA:          -9.211
REMARK INTER:                  -8.670
REMARK INTRA:                  -0.540
REMARK UNBOUND:                -0.158
REMARK SMILES O=C(Nc1ccc2c(c1)OC(F)(F)O2)Nc1ccc(Cl)c(C(F)(F)F)c1
REMARK SMILES IDX 20 1 16 2 21 3 26 4 17 5 19 6 18 7 22 8 23 9 24 10 25 11
REMARK SMILES IDX 15 12 2 13 1 15 3 16 4 18 9 19 5 20 8 21 6 22 10 23 7 24
REMARK SMILES IDX 11 25 14 26 12 27 13 28
REMARK H PARENT 15 14 3 17
REMARK Flexibility Score: inf
ROOT
ATOM      1  Cl  UNL     1     -11.745   6.067  -1.059  1.00  0.00    -0.084 Cl
ATOM      2  C   UNL     1     -10.550   1.716  -0.878  1.00  0.00     0.043 A 
ATOM      3  C   UNL     1     -11.068   3.680  -2.187  1.00  0.00     0.076 A 
ATOM      4  C   UNL     1     -10.698   2.337  -2.118  1.00  0.00     0.040 A 
ATOM      5  C   UNL     1     -10.771   2.439   0.294  1.00  0.00     0.028 A 
ATOM      6  C   UNL     1     -11.289   4.403  -1.014  1.00  0.00     0.053 A 
ATOM      7  C   UNL     1     -11.140   3.782   0.226  1.00  0.00     0.023 A 
ENDROOT
BRANCH   3   8
ATOM      8  C   UNL     1     -11.214   4.309  -3.535  1.00  0.00     0.417 C 
ATOM      9  F   UNL     1     -12.447   4.863  -3.720  1.00  0.00    -0.166 F 
ATOM     10  F   UNL     1     -10.320   5.313  -3.767  1.00  0.00    -0.166 F 
ATOM     11  F   UNL     1     -11.044   3.432  -4.565  1.00  0.00    -0.166 F 
ENDBRANCH   3   8
BRANCH   2  12
ATOM     12  N   UNL     1     -10.176   0.354  -0.810  1.00  0.00    -0.308 N 
ATOM     13  C   UNL     1      -8.880  -0.187  -0.793  1.00  0.00     0.323 C 
ATOM     14  H   UNL     1     -10.947  -0.307  -0.766  1.00  0.00     0.171 HD
ATOM     15  O   UNL     1      -7.840   0.462  -0.837  1.00  0.00    -0.248 OA
ATOM     16  N   UNL     1      -8.947  -1.600  -0.717  1.00  0.00    -0.308 N 
ATOM     17  H   UNL     1      -9.881  -2.001  -0.687  1.00  0.00     0.171 HD
BRANCH  16  18
ATOM     18  C   UNL     1      -7.898  -2.520  -0.678  1.00  0.00     0.046 A 
ATOM     19  C   UNL     1      -7.575  -3.151   0.525  1.00  0.00     0.077 A 
ATOM     20  C   UNL     1      -7.176  -2.802  -1.852  1.00  0.00     0.030 A 
ATOM     21  C   UNL     1      -6.531  -4.054   0.514  1.00  0.00     0.174 A 
ATOM     22  C   UNL     1      -6.124  -3.720  -1.836  1.00  0.00     0.053 A 
ATOM     23  O   UNL     1      -6.077  -4.762   1.586  1.00  0.00    -0.395 OA
ATOM     24  C   UNL     1      -5.825  -4.331  -0.635  1.00  0.00     0.172 A 
ATOM     25  C   UNL     1      -5.013  -5.503   0.971  1.00  0.00     0.586 C 
ATOM     26  O   UNL     1      -4.838  -5.246  -0.430  1.00  0.00    -0.395 OA
ATOM     27  F   UNL     1      -5.252  -6.827   1.144  1.00  0.00    -0.125 F 
ATOM     28  F   UNL     1      -3.854  -5.210   1.613  1.00  0.00    -0.125 F 
ENDBRANCH  16  18
ENDBRANCH   2  12
TORSDOF 3
ENDMDL
MODEL 13
REMARK VINA RESULT:    -7.673      3.869      5.040
REMARK INTER + INTRA:          -9.177
REMARK INTER:                  -8.662
REMARK INTRA:                  -0.515
REMARK UNBOUND:                -0.158
REMARK SMILES O=C(Nc1ccc2c(c1)OC(F)(F)O2)Nc1ccc(Cl)c(C(F)(F)F)c1
REMARK SMILES IDX 20 1 16 2 21 3 26 4 17 5 19 6 18 7 22 8 23 9 24 10 25 11
REMARK SMILES IDX 15 12 2 13 1 15 3 16 4 18 9 19 5 20 8 21 6 22 10 23 7 24
REMARK SMILES IDX 11 25 14 26 12 27 13 28
REMARK H PARENT 15 14 3 17
REMARK Flexibility Score: inf
ROOT
ATOM      1  Cl  UNL     1      -5.072  -4.447  -1.144  1.00  0.00    -0.084 Cl
ATOM      2  C   UNL     1      -8.189  -1.207  -0.715  1.00  0.00     0.043 A 
ATOM      3  C   UNL     1      -6.533  -2.649   0.293  1.00  0.00     0.076 A 
ATOM      4  C   UNL     1      -7.498  -1.649   0.413  1.00  0.00     0.040 A 
ATOM      5  C   UNL     1      -7.916  -1.766  -1.964  1.00  0.00     0.028 A 
ATOM      6  C   UNL     1      -6.260  -3.208  -0.956  1.00  0.00     0.053 A 
ATOM      7  C   UNL     1      -6.952  -2.766  -2.084  1.00  0.00     0.023 A 
ENDROOT
BRANCH   3   8
ATOM      8  C   UNL     1      -5.813  -3.093   1.525  1.00  0.00     0.417 C 
ATOM      9  F   UNL     1      -6.037  -4.407   1.815  1.00  0.00    -0.166 F 
ATOM     10  F   UNL     1      -4.458  -2.961   1.440  1.00  0.00    -0.166 F 
ATOM     11  F   UNL     1      -6.172  -2.401   2.644  1.00  0.00    -0.166 F 
ENDBRANCH   3   8
BRANCH   2  12
ATOM     12  N   UNL     1      -9.168  -0.193  -0.593  1.00  0.00    -0.308 N 
ATOM     13  C   UNL     1      -8.966   1.185  -0.408  1.00  0.00     0.323 C 
ATOM     14  H   UNL     1     -10.132  -0.510  -0.647  1.00  0.00     0.171 HD
ATOM     15  O   UNL     1      -7.874   1.737  -0.323  1.00  0.00    -0.248 OA
ATOM     16  N   UNL     1     -10.215   1.850  -0.336  1.00  0.00    -0.308 N 
ATOM     17  H   UNL     1     -11.039   1.261  -0.423  1.00  0.00     0.171 HD
BRANCH  16  18
ATOM     18  C   UNL     1     -10.466   3.212  -0.159  1.00  0.00     0.046 A 
ATOM     19  C   UNL     1     -10.200   3.811   1.074  1.00  0.00     0.077 A 
ATOM     20  C   UNL     1     -10.987   3.967  -1.225  1.00  0.00     0.030 A 
ATOM     21  C   UNL     1     -10.464   5.159   1.201  1.00  0.00     0.174 A 
ATOM     22  C   UNL     1     -11.246   5.331  -1.071  1.00  0.00     0.053 A 
ATOM     23  O   UNL     1     -10.268   5.909   2.321  1.00  0.00    -0.395 OA
ATOM     24  C   UNL     1     -10.973   5.899   0.157  1.00  0.00     0.172 A 
ATOM     25  C   UNL     1     -10.714   7.190   1.854  1.00  0.00     0.586 C 
ATOM     26  O   UNL     1     -11.161   7.206   0.491  1.00  0.00    -0.395 OA
ATOM     27  F   UNL     1      -9.696   8.077   1.987  1.00  0.00    -0.125 F 
ATOM     28  F   UNL     1     -11.729   7.612   2.648  1.00  0.00    -0.125 F 
ENDBRANCH  16  18
ENDBRANCH   2  12
TORSDOF 3
ENDMDL
MODEL 14
REMARK VINA RESULT:    -7.662      4.960      9.364
REMARK INTER + INTRA:          -9.164
REMARK INTER:                  -8.614
REMARK INTRA:                  -0.550
REMARK UNBOUND:                -0.158
REMARK SMILES O=C(Nc1ccc2c(c1)OC(F)(F)O2)Nc1ccc(Cl)c(C(F)(F)F)c1
REMARK SMILES IDX 20 1 16 2 21 3 26 4 17 5 19 6 18 7 22 8 23 9 24 10 25 11
REMARK SMILES IDX 15 12 2 13 1 15 3 16 4 18 9 19 5 20 8 21 6 22 10 23 7 24
REMARK SMILES IDX 11 25 14 26 12 27 13 28
REMARK H PARENT 15 14 3 17
REMARK Flexibility Score: inf
ROOT
ATOM      1  Cl  UNL     1     -10.710   2.209  -3.826  1.00  0.00    -0.084 Cl
ATOM      2  C   UNL     1      -8.005  -0.373  -1.293  1.00  0.00     0.043 A 
ATOM      3  C   UNL     1      -9.779   1.261  -1.446  1.00  0.00     0.076 A 
ATOM      4  C   UNL     1      -8.939   0.459  -0.674  1.00  0.00     0.040 A 
ATOM      5  C   UNL     1      -7.913  -0.402  -2.685  1.00  0.00     0.028 A 
ATOM      6  C   UNL     1      -9.686   1.232  -2.838  1.00  0.00     0.053 A 
ATOM      7  C   UNL     1      -8.753   0.400  -3.457  1.00  0.00     0.023 A 
ENDROOT
BRANCH   3   8
ATOM      8  C   UNL     1     -10.766   2.137  -0.745  1.00  0.00     0.417 C 
ATOM      9  F   UNL     1     -10.523   3.464  -0.947  1.00  0.00    -0.166 F 
ATOM     10  F   UNL     1     -12.055   1.934  -1.146  1.00  0.00    -0.166 F 
ATOM     11  F   UNL     1     -10.781   1.966   0.608  1.00  0.00    -0.166 F 
ENDBRANCH   3   8
BRANCH   2  12
ATOM     12  N   UNL     1      -7.153  -1.185  -0.510  1.00  0.00    -0.308 N 
ATOM     13  C   UNL     1      -7.438  -2.435   0.064  1.00  0.00     0.323 C 
ATOM     14  H   UNL     1      -6.222  -0.811  -0.349  1.00  0.00     0.171 HD
ATOM     15  O   UNL     1      -8.506  -3.032  -0.029  1.00  0.00    -0.248 OA
ATOM     16  N   UNL     1      -6.307  -2.911   0.772  1.00  0.00    -0.308 N 
ATOM     17  H   UNL     1      -5.489  -2.307   0.762  1.00  0.00     0.171 HD
BRANCH  16  18
ATOM     18  C   UNL     1      -6.164  -4.103   1.483  1.00  0.00     0.046 A 
ATOM     19  C   UNL     1      -6.199  -4.085   2.879  1.00  0.00     0.077 A 
ATOM     20  C   UNL     1      -5.984  -5.312   0.787  1.00  0.00     0.030 A 
ATOM     21  C   UNL     1      -6.054  -5.288   3.539  1.00  0.00     0.174 A 
ATOM     22  C   UNL     1      -5.840  -6.516   1.479  1.00  0.00     0.053 A 
ATOM     23  O   UNL     1      -6.063  -5.463   4.890  1.00  0.00    -0.395 OA
ATOM     24  C   UNL     1      -5.879  -6.472   2.858  1.00  0.00     0.172 A 
ATOM     25  C   UNL     1      -5.872  -6.883   4.966  1.00  0.00     0.586 C 
ATOM     26  O   UNL     1      -5.755  -7.539   3.694  1.00  0.00    -0.395 OA
ATOM     27  F   UNL     1      -6.918  -7.425   5.639  1.00  0.00    -0.125 F 
ATOM     28  F   UNL     1      -4.750  -7.132   5.686  1.00  0.00    -0.125 F 
ENDBRANCH  16  18
ENDBRANCH   2  12
TORSDOF 3
ENDMDL
MODEL 15
REMARK VINA RESULT:    -7.618      2.098      2.974
REMARK INTER + INTRA:          -9.112
REMARK INTER:                  -8.550
REMARK INTRA:                  -0.562
REMARK UNBOUND:                -0.158
REMARK SMILES O=C(Nc1ccc2c(c1)OC(F)(F)O2)Nc1ccc(Cl)c(C(F)(F)F)c1
REMARK SMILES IDX 20 1 16 2 21 3 26 4 17 5 19 6 18 7 22 8 23 9 24 10 25 11
REMARK SMILES IDX 15 12 2 13 1 15 3 16 4 18 9 19 5 20 8 21 6 22 10 23 7 24
REMARK SMILES IDX 11 25 14 26 12 27 13 28
REMARK H PARENT 15 14 3 17
REMARK Flexibility Score: inf
ROOT
ATOM      1  Cl  UNL     1      -4.964  -9.845  -2.967  1.00  0.00    -0.084 Cl
ATOM      2  C   UNL     1      -5.462  -5.433  -2.139  1.00  0.00     0.043 A 
ATOM      3  C   UNL     1      -4.904  -7.649  -1.353  1.00  0.00     0.076 A 
ATOM      4  C   UNL     1      -5.061  -6.285  -1.110  1.00  0.00     0.040 A 
ATOM      5  C   UNL     1      -5.706  -5.947  -3.413  1.00  0.00     0.028 A 
ATOM      6  C   UNL     1      -5.149  -8.163  -2.627  1.00  0.00     0.053 A 
ATOM      7  C   UNL     1      -5.550  -7.311  -3.657  1.00  0.00     0.023 A 
ENDROOT
BRANCH   3   8
ATOM      8  C   UNL     1      -4.471  -8.527  -0.224  1.00  0.00     0.417 C 
ATOM      9  F   UNL     1      -5.394  -9.487   0.074  1.00  0.00    -0.166 F 
ATOM     10  F   UNL     1      -3.309  -9.198  -0.471  1.00  0.00    -0.166 F 
ATOM     11  F   UNL     1      -4.254  -7.850   0.939  1.00  0.00    -0.166 F 
ENDBRANCH   3   8
BRANCH   2  12
ATOM     12  N   UNL     1      -5.621  -4.050  -1.892  1.00  0.00    -0.308 N 
ATOM     13  C   UNL     1      -6.754  -3.387  -1.393  1.00  0.00     0.323 C 
ATOM     14  H   UNL     1      -4.811  -3.474  -2.103  1.00  0.00     0.171 HD
ATOM     15  O   UNL     1      -7.813  -3.924  -1.085  1.00  0.00    -0.248 OA
ATOM     16  N   UNL     1      -6.495  -1.997  -1.293  1.00  0.00    -0.308 N 
ATOM     17  H   UNL     1      -5.569  -1.695  -1.585  1.00  0.00     0.171 HD
BRANCH  16  18
ATOM     18  C   UNL     1      -7.345  -0.983  -0.848  1.00  0.00     0.046 A 
ATOM     19  C   UNL     1      -8.373  -0.528  -1.675  1.00  0.00     0.077 A 
ATOM     20  C   UNL     1      -7.156  -0.429   0.431  1.00  0.00     0.030 A 
ATOM     21  C   UNL     1      -9.188   0.475  -1.192  1.00  0.00     0.174 A 
ATOM     22  C   UNL     1      -7.994   0.586   0.897  1.00  0.00     0.053 A 
ATOM     23  O   UNL     1     -10.236   1.040  -1.853  1.00  0.00    -0.395 OA
ATOM     24  C   UNL     1      -9.004   1.017   0.060  1.00  0.00     0.172 A 
ATOM     25  C   UNL     1     -10.675   1.992  -0.873  1.00  0.00     0.586 C 
ATOM     26  O   UNL     1      -9.912   1.992   0.343  1.00  0.00    -0.395 OA
ATOM     27  F   UNL     1     -11.972   1.733  -0.570  1.00  0.00    -0.125 F 
ATOM     28  F   UNL     1     -10.622   3.232  -1.418  1.00  0.00    -0.125 F 
ENDBRANCH  16  18
ENDBRANCH   2  12
TORSDOF 3
ENDMDL
MODEL 16
REMARK VINA RESULT:    -7.570      4.358      5.015
REMARK INTER + INTRA:          -9.056
REMARK INTER:                  -8.503
REMARK INTRA:                  -0.553
REMARK UNBOUND:                -0.158
REMARK SMILES O=C(Nc1ccc2c(c1)OC(F)(F)O2)Nc1ccc(Cl)c(C(F)(F)F)c1
REMARK SMILES IDX 20 1 16 2 21 3 26 4 17 5 19 6 18 7 22 8 23 9 24 10 25 11
REMARK SMILES IDX 15 12 2 13 1 15 3 16 4 18 9 19 5 20 8 21 6 22 10 23 7 24
REMARK SMILES IDX 11 25 14 26 12 27 13 28
REMARK H PARENT 15 14 3 17
REMARK Flexibility Score: inf
ROOT
ATOM      1  Cl  UNL     1      -4.914  -8.422   4.026  1.00  0.00    -0.084 Cl
ATOM      2  C   UNL     1      -5.658  -4.443   2.023  1.00  0.00     0.043 A 
ATOM      3  C   UNL     1      -5.809  -5.848   3.983  1.00  0.00     0.076 A 
ATOM      4  C   UNL     1      -6.033  -4.623   3.354  1.00  0.00     0.040 A 
ATOM      5  C   UNL     1      -5.057  -5.488   1.320  1.00  0.00     0.028 A 
ATOM      6  C   UNL     1      -5.209  -6.893   3.281  1.00  0.00     0.053 A 
ATOM      7  C   UNL     1      -4.833  -6.713   1.949  1.00  0.00     0.023 A 
ENDROOT
BRANCH   3   8
ATOM      8  C   UNL     1      -6.225  -5.999   5.411  1.00  0.00     0.417 C 
ATOM      9  F   UNL     1      -7.162  -6.975   5.580  1.00  0.00    -0.166 F 
ATOM     10  F   UNL     1      -5.196  -6.329   6.245  1.00  0.00    -0.166 F 
ATOM     11  F   UNL     1      -6.768  -4.868   5.942  1.00  0.00    -0.166 F 
ENDBRANCH   3   8
BRANCH   2  12
ATOM     12  N   UNL     1      -5.886  -3.202   1.385  1.00  0.00    -0.308 N 
ATOM     13  C   UNL     1      -6.987  -2.823   0.599  1.00  0.00     0.323 C 
ATOM     14  H   UNL     1      -5.160  -2.503   1.518  1.00  0.00     0.171 HD
ATOM     15  O   UNL     1      -7.950  -3.536   0.337  1.00  0.00    -0.248 OA
ATOM     16  N   UNL     1      -6.824  -1.490   0.149  1.00  0.00    -0.308 N 
ATOM     17  H   UNL     1      -5.973  -1.021   0.447  1.00  0.00     0.171 HD
BRANCH  16  18
ATOM     18  C   UNL     1      -7.679  -0.731  -0.651  1.00  0.00     0.046 A 
ATOM     19  C   UNL     1      -8.463   0.269  -0.073  1.00  0.00     0.077 A 
ATOM     20  C   UNL     1      -7.744  -0.982  -2.034  1.00  0.00     0.030 A 
ATOM     21  C   UNL     1      -9.292   0.994  -0.904  1.00  0.00     0.174 A 
ATOM     22  C   UNL     1      -8.591  -0.234  -2.853  1.00  0.00     0.053 A 
ATOM     23  O   UNL     1     -10.123   2.003  -0.520  1.00  0.00    -0.395 OA
ATOM     24  C   UNL     1      -9.355   0.750  -2.257  1.00  0.00     0.172 A 
ATOM     25  C   UNL     1     -10.706   2.351  -1.784  1.00  0.00     0.586 C 
ATOM     26  O   UNL     1     -10.233   1.573  -2.893  1.00  0.00    -0.395 OA
ATOM     27  F   UNL     1     -10.451   3.660  -2.033  1.00  0.00    -0.125 F 
ATOM     28  F   UNL     1     -12.052   2.206  -1.696  1.00  0.00    -0.125 F 
ENDBRANCH  16  18
ENDBRANCH   2  12
TORSDOF 3
ENDMDL
MODEL 17
REMARK VINA RESULT:    -7.565      3.891     10.128
REMARK INTER + INTRA:          -9.050
REMARK INTER:                  -8.580
REMARK INTRA:                  -0.470
REMARK UNBOUND:                -0.158
REMARK SMILES O=C(Nc1ccc2c(c1)OC(F)(F)O2)Nc1ccc(Cl)c(C(F)(F)F)c1
REMARK SMILES IDX 20 1 16 2 21 3 26 4 17 5 19 6 18 7 22 8 23 9 24 10 25 11
REMARK SMILES IDX 15 12 2 13 1 15 3 16 4 18 9 19 5 20 8 21 6 22 10 23 7 24
REMARK SMILES IDX 11 25 14 26 12 27 13 28
REMARK H PARENT 15 14 3 17
REMARK Flexibility Score: inf
ROOT
ATOM      1  Cl  UNL     1     -11.399   6.238  -0.946  1.00  0.00    -0.084 Cl
ATOM      2  C   UNL     1     -10.414   1.832  -0.806  1.00  0.00     0.043 A 
ATOM      3  C   UNL     1     -10.326   4.019   0.218  1.00  0.00     0.076 A 
ATOM      4  C   UNL     1     -10.027   2.657   0.251  1.00  0.00     0.040 A 
ATOM      5  C   UNL     1     -11.099   2.371  -1.896  1.00  0.00     0.028 A 
ATOM      6  C   UNL     1     -11.011   4.557  -0.871  1.00  0.00     0.053 A 
ATOM      7  C   UNL     1     -11.398   3.733  -1.928  1.00  0.00     0.023 A 
ENDROOT
BRANCH   3   8
ATOM      8  C   UNL     1      -9.896   4.868   1.371  1.00  0.00     0.417 C 
ATOM      9  F   UNL     1      -9.220   4.157   2.319  1.00  0.00    -0.166 F 
ATOM     10  F   UNL     1      -9.064   5.889   1.014  1.00  0.00    -0.166 F 
ATOM     11  F   UNL     1     -10.934   5.462   2.026  1.00  0.00    -0.166 F 
ENDBRANCH   3   8
BRANCH   2  12
ATOM     12  N   UNL     1     -10.111   0.451  -0.773  1.00  0.00    -0.308 N 
ATOM     13  C   UNL     1      -8.847  -0.153  -0.670  1.00  0.00     0.323 C 
ATOM     14  H   UNL     1     -10.911  -0.172  -0.831  1.00  0.00     0.171 HD
ATOM     15  O   UNL     1      -7.779   0.444  -0.591  1.00  0.00    -0.248 OA
ATOM     16  N   UNL     1      -8.985  -1.563  -0.671  1.00  0.00    -0.308 N 
ATOM     17  H   UNL     1      -9.935  -1.918  -0.743  1.00  0.00     0.171 HD
BRANCH  16  18
ATOM     18  C   UNL     1      -7.987  -2.536  -0.586  1.00  0.00     0.046 A 
ATOM     19  C   UNL     1      -7.447  -3.077  -1.754  1.00  0.00     0.077 A 
ATOM     20  C   UNL     1      -7.536  -2.962   0.676  1.00  0.00     0.030 A 
ATOM     21  C   UNL     1      -6.462  -4.034  -1.621  1.00  0.00     0.174 A 
ATOM     22  C   UNL     1      -6.538  -3.932   0.784  1.00  0.00     0.053 A 
ATOM     23  O   UNL     1      -5.823  -4.669  -2.643  1.00  0.00    -0.395 OA
ATOM     24  C   UNL     1      -6.019  -4.451  -0.386  1.00  0.00     0.172 A 
ATOM     25  C   UNL     1      -4.940  -5.524  -1.901  1.00  0.00     0.586 C 
ATOM     26  O   UNL     1      -5.048  -5.400  -0.475  1.00  0.00    -0.395 OA
ATOM     27  F   UNL     1      -3.663  -5.247  -2.265  1.00  0.00    -0.125 F 
ATOM     28  F   UNL     1      -5.193  -6.811  -2.244  1.00  0.00    -0.125 F 
ENDBRANCH  16  18
ENDBRANCH   2  12
TORSDOF 3
ENDMDL
MODEL 18
REMARK VINA RESULT:    -7.471      4.025      9.906
REMARK INTER + INTRA:          -8.940
REMARK INTER:                  -8.443
REMARK INTRA:                  -0.497
REMARK UNBOUND:                -0.158
REMARK SMILES O=C(Nc1ccc2c(c1)OC(F)(F)O2)Nc1ccc(Cl)c(C(F)(F)F)c1
REMARK SMILES IDX 20 1 16 2 21 3 26 4 17 5 19 6 18 7 22 8 23 9 24 10 25 11
REMARK SMILES IDX 15 12 2 13 1 15 3 16 4 18 9 19 5 20 8 21 6 22 10 23 7 24
REMARK SMILES IDX 11 25 14 26 12 27 13 28
REMARK H PARENT 15 14 3 17
REMARK Flexibility Score: inf
ROOT
ATOM      1  Cl  UNL     1     -11.304   6.213  -0.398  1.00  0.00    -0.084 Cl
ATOM      2  C   UNL     1     -10.363   1.802  -0.635  1.00  0.00     0.043 A 
ATOM      3  C   UNL     1     -10.966   3.865  -1.740  1.00  0.00     0.076 A 
ATOM      4  C   UNL     1     -10.673   2.503  -1.801  1.00  0.00     0.040 A 
ATOM      5  C   UNL     1     -10.347   2.465   0.592  1.00  0.00     0.028 A 
ATOM      6  C   UNL     1     -10.949   4.527  -0.513  1.00  0.00     0.053 A 
ATOM      7  C   UNL     1     -10.639   3.827   0.653  1.00  0.00     0.023 A 
ENDROOT
BRANCH   3   8
ATOM      8  C   UNL     1     -11.290   4.579  -3.013  1.00  0.00     0.417 C 
ATOM      9  F   UNL     1     -12.483   5.237  -2.951  1.00  0.00    -0.166 F 
ATOM     10  F   UNL     1     -10.367   5.522  -3.358  1.00  0.00    -0.166 F 
ATOM     11  F   UNL     1     -11.380   3.752  -4.093  1.00  0.00    -0.166 F 
ENDBRANCH   3   8
BRANCH   2  12
ATOM     12  N   UNL     1     -10.067   0.421  -0.697  1.00  0.00    -0.308 N 
ATOM     13  C   UNL     1      -8.821  -0.205  -0.529  1.00  0.00     0.323 C 
ATOM     14  H   UNL     1     -10.860  -0.187  -0.886  1.00  0.00     0.171 HD
ATOM     15  O   UNL     1      -7.763   0.372  -0.294  1.00  0.00    -0.248 OA
ATOM     16  N   UNL     1      -8.961  -1.607  -0.669  1.00  0.00    -0.308 N 
ATOM     17  H   UNL     1      -9.900  -1.944  -0.863  1.00  0.00     0.171 HD
BRANCH  16  18
ATOM     18  C   UNL     1      -7.977  -2.594  -0.577  1.00  0.00     0.046 A 
ATOM     19  C   UNL     1      -7.482  -3.188  -1.739  1.00  0.00     0.077 A 
ATOM     20  C   UNL     1      -7.496  -2.980   0.687  1.00  0.00     0.030 A 
ATOM     21  C   UNL     1      -6.511  -4.158  -1.599  1.00  0.00     0.174 A 
ATOM     22  C   UNL     1      -6.512  -3.964   0.802  1.00  0.00     0.053 A 
ATOM     23  O   UNL     1      -5.913  -4.842  -2.614  1.00  0.00    -0.395 OA
ATOM     24  C   UNL     1      -6.038  -4.536  -0.362  1.00  0.00     0.172 A 
ATOM     25  C   UNL     1      -5.023  -5.685  -1.867  1.00  0.00     0.586 C 
ATOM     26  O   UNL     1      -5.086  -5.505  -0.444  1.00  0.00    -0.395 OA
ATOM     27  F   UNL     1      -3.753  -5.445  -2.279  1.00  0.00    -0.125 F 
ATOM     28  F   UNL     1      -5.309  -6.979  -2.153  1.00  0.00    -0.125 F 
ENDBRANCH  16  18
ENDBRANCH   2  12
TORSDOF 3
ENDMDL
MODEL 19
REMARK VINA RESULT:    -7.406      1.962      2.290
REMARK INTER + INTRA:          -8.863
REMARK INTER:                  -8.705
REMARK INTRA:                  -0.158
REMARK UNBOUND:                -0.158
REMARK SMILES O=C(Nc1ccc2c(c1)OC(F)(F)O2)Nc1ccc(Cl)c(C(F)(F)F)c1
REMARK SMILES IDX 20 1 16 2 21 3 26 4 17 5 19 6 18 7 22 8 23 9 24 10 25 11
REMARK SMILES IDX 15 12 2 13 1 15 3 16 4 18 9 19 5 20 8 21 6 22 10 23 7 24
REMARK SMILES IDX 11 25 14 26 12 27 13 28
REMARK H PARENT 15 14 3 17
REMARK Flexibility Score: inf
ROOT
ATOM      1  Cl  UNL     1      -2.864  -5.499  -0.919  1.00  0.00    -0.084 Cl
ATOM      2  C   UNL     1      -6.524  -2.877  -1.269  1.00  0.00     0.043 A 
ATOM      3  C   UNL     1      -5.271  -4.810  -1.997  1.00  0.00     0.076 A 
ATOM      4  C   UNL     1      -6.397  -3.993  -2.096  1.00  0.00     0.040 A 
ATOM      5  C   UNL     1      -5.524  -2.577  -0.344  1.00  0.00     0.028 A 
ATOM      6  C   UNL     1      -4.271  -4.510  -1.071  1.00  0.00     0.053 A 
ATOM      7  C   UNL     1      -4.398  -3.394  -0.245  1.00  0.00     0.023 A 
ENDROOT
BRANCH   3   8
ATOM      8  C   UNL     1      -5.174  -5.998  -2.899  1.00  0.00     0.417 C 
ATOM      9  F   UNL     1      -3.883  -6.327  -3.191  1.00  0.00    -0.166 F 
ATOM     10  F   UNL     1      -5.731  -7.127  -2.373  1.00  0.00    -0.166 F 
ATOM     11  F   UNL     1      -5.791  -5.820  -4.101  1.00  0.00    -0.166 F 
ENDBRANCH   3   8
BRANCH   2  12
ATOM     12  N   UNL     1      -7.666  -2.048  -1.370  1.00  0.00    -0.308 N 
ATOM     13  C   UNL     1      -7.721  -0.695  -1.743  1.00  0.00     0.323 C 
ATOM     14  H   UNL     1      -8.550  -2.495  -1.144  1.00  0.00     0.171 HD
ATOM     15  O   UNL     1      -6.755  -0.003  -2.049  1.00  0.00    -0.248 OA
ATOM     16  N   UNL     1      -9.063  -0.241  -1.718  1.00  0.00    -0.308 N 
ATOM     17  H   UNL     1      -9.760  -0.929  -1.445  1.00  0.00     0.171 HD
BRANCH  16  18
ATOM     18  C   UNL     1      -9.559   1.029  -2.017  1.00  0.00     0.046 A 
ATOM     19  C   UNL     1      -9.836   1.925  -0.983  1.00  0.00     0.077 A 
ATOM     20  C   UNL     1      -9.775   1.393  -3.358  1.00  0.00     0.030 A 
ATOM     21  C   UNL     1     -10.323   3.169  -1.328  1.00  0.00     0.174 A 
ATOM     22  C   UNL     1     -10.269   2.659  -3.680  1.00  0.00     0.053 A 
ATOM     23  O   UNL     1     -10.647   4.168  -0.460  1.00  0.00    -0.395 OA
ATOM     24  C   UNL     1     -10.534   3.527  -2.641  1.00  0.00     0.172 A 
ATOM     25  C   UNL     1     -11.083   5.178  -1.381  1.00  0.00     0.586 C 
ATOM     26  O   UNL     1     -11.018   4.793  -2.763  1.00  0.00    -0.395 OA
ATOM     27  F   UNL     1     -10.320   6.285  -1.203  1.00  0.00    -0.125 F 
ATOM     28  F   UNL     1     -12.363   5.512  -1.085  1.00  0.00    -0.125 F 
ENDBRANCH  16  18
ENDBRANCH   2  12
TORSDOF 3
ENDMDL
MODEL 20
REMARK VINA RESULT:    -7.326      3.843      9.800
REMARK INTER + INTRA:          -8.769
REMARK INTER:                  -8.749
REMARK INTRA:                  -0.020
REMARK UNBOUND:                -0.158
REMARK SMILES O=C(Nc1ccc2c(c1)OC(F)(F)O2)Nc1ccc(Cl)c(C(F)(F)F)c1
REMARK SMILES IDX 20 1 16 2 21 3 26 4 17 5 19 6 18 7 22 8 23 9 24 10 25 11
REMARK SMILES IDX 15 12 2 13 1 15 3 16 4 18 9 19 5 20 8 21 6 22 10 23 7 24
REMARK SMILES IDX 11 25 14 26 12 27 13 28
REMARK H PARENT 15 14 3 17
REMARK Flexibility Score: inf
ROOT
ATOM      1  Cl  UNL     1      -9.416   4.281   1.526  1.00  0.00    -0.084 Cl
ATOM      2  C   UNL     1      -8.749   0.214  -0.320  1.00  0.00     0.043 A 
ATOM      3  C   UNL     1     -10.206   2.093   0.106  1.00  0.00     0.076 A 
ATOM      4  C   UNL     1      -9.989   0.837  -0.461  1.00  0.00     0.040 A 
ATOM      5  C   UNL     1      -7.726   0.847   0.387  1.00  0.00     0.028 A 
ATOM      6  C   UNL     1      -9.184   2.726   0.813  1.00  0.00     0.053 A 
ATOM      7  C   UNL     1      -7.944   2.102   0.953  1.00  0.00     0.023 A 
ENDROOT
BRANCH   3   8
ATOM      8  C   UNL     1     -11.548   2.728  -0.069  1.00  0.00     0.417 C 
ATOM      9  F   UNL     1     -12.417   1.932  -0.757  1.00  0.00    -0.166 F 
ATOM     10  F   UNL     1     -12.170   3.019   1.110  1.00  0.00    -0.166 F 
ATOM     11  F   UNL     1     -11.507   3.907  -0.753  1.00  0.00    -0.166 F 
ENDBRANCH   3   8
BRANCH   2  12
ATOM     12  N   UNL     1      -8.529  -1.060  -0.894  1.00  0.00    -0.308 N 
ATOM     13  C   UNL     1      -7.475  -1.953  -0.638  1.00  0.00     0.323 C 
ATOM     14  H   UNL     1      -9.224  -1.358  -1.573  1.00  0.00     0.171 HD
ATOM     15  O   UNL     1      -6.554  -1.757   0.148  1.00  0.00    -0.248 OA
ATOM     16  N   UNL     1      -7.629  -3.121  -1.424  1.00  0.00    -0.308 N 
ATOM     17  H   UNL     1      -8.444  -3.144  -2.032  1.00  0.00     0.171 HD
BRANCH  16  18
ATOM     18  C   UNL     1      -6.810  -4.250  -1.476  1.00  0.00     0.046 A 
ATOM     19  C   UNL     1      -6.739  -5.105  -0.375  1.00  0.00     0.077 A 
ATOM     20  C   UNL     1      -6.063  -4.515  -2.638  1.00  0.00     0.030 A 
ATOM     21  C   UNL     1      -5.917  -6.209  -0.473  1.00  0.00     0.174 A 
ATOM     22  C   UNL     1      -5.238  -5.639  -2.712  1.00  0.00     0.053 A 
ATOM     23  O   UNL     1      -5.723  -7.149   0.494  1.00  0.00    -0.395 OA
ATOM     24  C   UNL     1      -5.186  -6.469  -1.611  1.00  0.00     0.172 A 
ATOM     25  C   UNL     1      -4.791  -8.014  -0.171  1.00  0.00     0.586 C 
ATOM     26  O   UNL     1      -4.441  -7.603  -1.501  1.00  0.00    -0.395 OA
ATOM     27  F   UNL     1      -5.323  -9.260  -0.228  1.00  0.00    -0.125 F 
ATOM     28  F   UNL     1      -3.659  -8.086   0.572  1.00  0.00    -0.125 F 
ENDBRANCH  16  18
ENDBRANCH   2  12
TORSDOF 3
ENDMDL
