REMARK SMILES O=C(Nc1ccc2c(c1)OC(F)(F)O2)Nc1ccc(Cl)c(C(F)(F)F)c1
REMARK SMILES IDX 20 1 16 2 21 3 26 4 17 5 19 6 18 7 22 8 23 9 24 10 25 11
REMARK SMILES IDX 15 12 2 13 1 15 3 16 4 18 9 19 5 20 8 21 6 22 10 23 7 24
REMARK SMILES IDX 11 25 14 26 12 27 13 28
REMARK H PARENT 15 14 3 17
REMARK Flexibility Score: inf
ROOT
ATOM      1  Cl  UNL     1       4.798  -5.162   2.161  1.00  0.00    -0.084 Cl
ATOM      2  C   UNL     1       1.100  -5.866   4.656  1.00  0.00     0.043 A 
ATOM      3  C   UNL     1       2.288  -4.539   3.024  1.00  0.00     0.076 A 
ATOM      4  C   UNL     1       1.151  -4.767   3.798  1.00  0.00     0.040 A 
ATOM      5  C   UNL     1       2.186  -6.737   4.739  1.00  0.00     0.028 A 
ATOM      6  C   UNL     1       3.375  -5.410   3.106  1.00  0.00     0.053 A 
ATOM      7  C   UNL     1       3.323  -6.509   3.964  1.00  0.00     0.023 A 
ENDROOT
BRANCH   3   8
ATOM      8  C   UNL     1       2.303  -3.352   2.115  1.00  0.00     0.417 C 
ATOM      9  F   UNL     1       1.147  -2.630   2.182  1.00  0.00    -0.166 F 
ATOM     10  F   UNL     1       3.305  -2.468   2.391  1.00  0.00    -0.166 F 
ATOM     11  F   UNL     1       2.461  -3.675   0.800  1.00  0.00    -0.166 F 
ENDBRANCH   3   8
BRANCH   2  12
ATOM     12  N   UNL     1      -0.053  -6.096   5.443  1.00  0.00    -0.308 N 
ATOM     13  C   UNL     1      -0.457  -5.417   6.604  1.00  0.00     0.323 C 
ATOM     14  H   UNL     1      -0.658  -6.846   5.120  1.00  0.00     0.171 HD
ATOM     15  O   UNL     1       0.149  -4.489   7.131  1.00  0.00    -0.248 OA
ATOM     16  N   UNL     1      -1.674  -5.960   7.083  1.00  0.00    -0.308 N 
ATOM     17  H   UNL     1      -2.062  -6.729   6.542  1.00  0.00     0.171 HD
BRANCH  16  18
ATOM     18  C   UNL     1      -2.416  -5.581   8.203  1.00  0.00     0.046 A 
ATOM     19  C   UNL     1      -2.069  -6.074   9.462  1.00  0.00     0.077 A 
ATOM     20  C   UNL     1      -3.506  -4.705   8.052  1.00  0.00     0.030 A 
ATOM     21  C   UNL     1      -2.831  -5.671  10.540  1.00  0.00     0.174 A 
ATOM     22  C   UNL     1      -4.261  -4.313   9.159  1.00  0.00     0.053 A 
ATOM     23  O   UNL     1      -2.642  -6.047  11.835  1.00  0.00    -0.395 OA
ATOM     24  C   UNL     1      -3.898  -4.813  10.393  1.00  0.00     0.172 A 
ATOM     25  C   UNL     1      -3.711  -5.329  12.469  1.00  0.00     0.586 C 
ATOM     26  O   UNL     1      -4.514  -4.543  11.576  1.00  0.00    -0.395 OA
ATOM     27  F   UNL     1      -3.182  -4.509  13.412  1.00  0.00    -0.125 F 
ATOM     28  F   UNL     1      -4.513  -6.218  13.105  1.00  0.00    -0.125 F 
ENDBRANCH  16  18
ENDBRANCH   2  12
TORSDOF 3
