REMARK SMILES CC1(C)S[C@H]([C@@H](CO)[C]([O-])O)N[C@H]1[C]([O-])O
REMARK SMILES IDX 4 1 12 2 2 3 13 4 5 5 1 6 3 7 6 8 7 9 8 10 9 11 11 12 10 13
REMARK SMILES IDX 14 14 16 15 15 16
REMARK H PARENT
REMARK INDEX MAP 1 1 7 2 8 3 9 4 10 5 12 6 13 7 11 8 15 9 3 10 16 11 5 12 6 13
REMARK INDEX MAP 14 14 2 15 4 16
REMARK Flexibility Score: inf
ROOT
ATOM      1  S   UNL     1       1.973   8.591  -0.012  1.00  0.00    -0.135 SA
ATOM      2  N   UNL     1       0.962  10.407  -1.689  1.00  0.00    -0.299 NA
ATOM      3  C   UNL     1       0.743   8.027  -1.242  1.00  0.00     0.029 C 
ATOM      4  C   UNL     1       0.816   9.102  -2.346  1.00  0.00     0.037 C 
ATOM      5  C   UNL     1       1.987  10.298  -0.649  1.00  0.00     0.061 C 
ATOM      6  C   UNL     1      -0.637   8.027  -0.563  1.00  0.00    -0.049 C 
ATOM      7  C   UNL     1       1.074   6.615  -1.726  1.00  0.00    -0.049 C 
ENDROOT
BRANCH   5   8
ATOM      8  C   UNL     1       1.706  11.292   0.467  1.00  0.00     0.022 C 
BRANCH   8   9
ATOM      9  C   UNL     1       1.471  10.564   1.793  1.00  0.00     0.050 C 
ATOM     10  O   UNL     1       0.717  11.401   2.663  1.00  0.00    -0.396 OA
ENDBRANCH   8   9
BRANCH   8  11
ATOM     11  C   UNL     1       2.872  12.263   0.576  1.00  0.00     0.012 C 
ATOM     12  O   UNL     1       3.902  11.748   1.298  1.00  0.00    -0.405 OA
ATOM     13  O   UNL     1       2.900  13.387   0.090  1.00  0.00    -0.827 OA
ENDBRANCH   8  11
ENDBRANCH   5   8
BRANCH   4  14
ATOM     14  C   UNL     1       1.944   8.951  -3.330  1.00  0.00     0.023 C 
ATOM     15  O   UNL     1       1.464   8.810  -4.590  1.00  0.00    -0.404 OA
ATOM     16  O   UNL     1       3.132   8.954  -3.042  1.00  0.00    -0.826 OA
ENDBRANCH   4  14
TORSDOF 4
