MODEL 1
REMARK VINA RESULT:    -6.101      0.000      0.000
REMARK INTER + INTRA:          -7.468
REMARK INTER:                  -7.527
REMARK INTRA:                   0.058
REMARK UNBOUND:                 0.059
REMARK SMILES CC1(C)S[C@H]([C@@H](CO)[C]([O-])O)N[C@H]1[C]([O-])O
REMARK SMILES IDX 4 1 12 2 2 3 13 4 5 5 1 6 3 7 6 8 7 9 8 10 9 11 11 12 10 13
REMARK SMILES IDX 14 14 16 15 15 16
REMARK H PARENT
REMARK INDEX MAP 1 1 7 2 8 3 9 4 10 5 12 6 13 7 11 8 15 9 3 10 16 11 5 12 6 13
REMARK INDEX MAP 14 14 2 15 4 16
REMARK Flexibility Score: inf
ROOT
ATOM      1  S   UNL     1       0.322   3.927   0.692  1.00  0.00    -0.135 SA
ATOM      2  N   UNL     1       1.494   3.734  -1.700  1.00  0.00    -0.299 NA
ATOM      3  C   UNL     1      -0.208   5.089  -0.616  1.00  0.00     0.029 C 
ATOM      4  C   UNL     1       0.190   4.372  -1.922  1.00  0.00     0.037 C 
ATOM      5  C   UNL     1       1.463   3.034  -0.413  1.00  0.00     0.061 C 
ATOM      6  C   UNL     1       0.587   6.393  -0.440  1.00  0.00    -0.049 C 
ATOM      7  C   UNL     1      -1.704   5.383  -0.501  1.00  0.00    -0.049 C 
ENDROOT
BRANCH   5   8
ATOM      8  C   UNL     1       2.860   2.979   0.185  1.00  0.00     0.022 C 
BRANCH   8   9
ATOM      9  C   UNL     1       3.179   4.275   0.934  1.00  0.00     0.050 C 
ATOM     10  O   UNL     1       4.297   4.910   0.324  1.00  0.00    -0.396 OA
ENDBRANCH   8   9
BRANCH   8  11
ATOM     11  C   UNL     1       2.960   1.774   1.108  1.00  0.00     0.012 C 
ATOM     12  O   UNL     1       3.698   2.040   2.218  1.00  0.00    -0.405 OA
ATOM     13  O   UNL     1       2.455   0.680   0.894  1.00  0.00    -0.827 OA
ENDBRANCH   8  11
ENDBRANCH   5   8
BRANCH   4  14
ATOM     14  C   UNL     1      -0.766   3.314  -2.403  1.00  0.00     0.023 C 
ATOM     15  O   UNL     1      -1.388   3.713  -3.540  1.00  0.00    -0.404 OA
ATOM     16  O   UNL     1      -0.961   2.241  -1.852  1.00  0.00    -0.826 OA
ENDBRANCH   4  14
TORSDOF 4
ENDMDL
MODEL 2
REMARK VINA RESULT:    -6.080      1.860      4.948
REMARK INTER + INTRA:          -7.443
REMARK INTER:                  -7.528
REMARK INTRA:                   0.085
REMARK UNBOUND:                 0.059
REMARK SMILES CC1(C)S[C@H]([C@@H](CO)[C]([O-])O)N[C@H]1[C]([O-])O
REMARK SMILES IDX 4 1 12 2 2 3 13 4 5 5 1 6 3 7 6 8 7 9 8 10 9 11 11 12 10 13
REMARK SMILES IDX 14 14 16 15 15 16
REMARK H PARENT
REMARK INDEX MAP 1 1 7 2 8 3 9 4 10 5 12 6 13 7 11 8 15 9 3 10 16 11 5 12 6 13
REMARK INDEX MAP 14 14 2 15 4 16
REMARK Flexibility Score: inf
ROOT
ATOM      1  S   UNL     1       1.339   4.882  -1.498  1.00  0.00    -0.135 SA
ATOM      2  N   UNL     1       0.041   3.754   0.546  1.00  0.00    -0.299 NA
ATOM      3  C   UNL     1       2.068   5.043   0.171  1.00  0.00     0.029 C 
ATOM      4  C   UNL     1       1.447   3.867   0.953  1.00  0.00     0.037 C 
ATOM      5  C   UNL     1      -0.034   3.836  -0.915  1.00  0.00     0.061 C 
ATOM      6  C   UNL     1       1.618   6.392   0.755  1.00  0.00    -0.049 C 
ATOM      7  C   UNL     1       3.595   5.002   0.097  1.00  0.00    -0.049 C 
ENDROOT
BRANCH   5   8
ATOM      8  C   UNL     1      -1.373   4.420  -1.337  1.00  0.00     0.022 C 
BRANCH   8   9
ATOM      9  C   UNL     1      -1.256   5.928  -1.570  1.00  0.00     0.050 C 
ATOM     10  O   UNL     1      -2.180   6.608  -0.727  1.00  0.00    -0.396 OA
ENDBRANCH   8   9
BRANCH   8  11
ATOM     11  C   UNL     1      -1.855   3.708  -2.592  1.00  0.00     0.012 C 
ATOM     12  O   UNL     1      -2.974   2.971  -2.366  1.00  0.00    -0.405 OA
ATOM     13  O   UNL     1      -1.310   3.766  -3.687  1.00  0.00    -0.827 OA
ENDBRANCH   8  11
ENDBRANCH   5   8
BRANCH   4  14
ATOM     14  C   UNL     1       2.099   2.527   0.742  1.00  0.00     0.023 C 
ATOM     15  O   UNL     1       2.776   2.145   1.852  1.00  0.00    -0.404 OA
ATOM     16  O   UNL     1       2.030   1.867  -0.285  1.00  0.00    -0.826 OA
ENDBRANCH   4  14
TORSDOF 4
ENDMDL
MODEL 3
REMARK VINA RESULT:    -5.683      1.720      2.193
REMARK INTER + INTRA:          -6.953
REMARK INTER:                  -7.241
REMARK INTRA:                   0.288
REMARK UNBOUND:                 0.059
REMARK SMILES CC1(C)S[C@H]([C@@H](CO)[C]([O-])O)N[C@H]1[C]([O-])O
REMARK SMILES IDX 4 1 12 2 2 3 13 4 5 5 1 6 3 7 6 8 7 9 8 10 9 11 11 12 10 13
REMARK SMILES IDX 14 14 16 15 15 16
REMARK H PARENT
REMARK INDEX MAP 1 1 7 2 8 3 9 4 10 5 12 6 13 7 11 8 15 9 3 10 16 11 5 12 6 13
REMARK INDEX MAP 14 14 2 15 4 16
REMARK Flexibility Score: inf
ROOT
ATOM      1  S   UNL     1       1.948   5.566   0.955  1.00  0.00    -0.135 SA
ATOM      2  N   UNL     1       2.498   3.427  -0.546  1.00  0.00    -0.299 NA
ATOM      3  C   UNL     1       1.235   5.496  -0.727  1.00  0.00     0.029 C 
ATOM      4  C   UNL     1       1.245   3.991  -1.063  1.00  0.00     0.037 C 
ATOM      5  C   UNL     1       2.706   3.915   0.819  1.00  0.00     0.061 C 
ATOM      6  C   UNL     1       2.168   6.276  -1.668  1.00  0.00    -0.049 C 
ATOM      7  C   UNL     1      -0.157   6.128  -0.749  1.00  0.00    -0.049 C 
ENDROOT
BRANCH   5   8
ATOM      8  C   UNL     1       4.194   3.978   1.130  1.00  0.00     0.022 C 
BRANCH   8   9
ATOM      9  C   UNL     1       4.470   4.988   2.247  1.00  0.00     0.050 C 
ATOM     10  O   UNL     1       4.304   4.352   3.509  1.00  0.00    -0.396 OA
ENDBRANCH   8   9
BRANCH   8  11
ATOM     11  C   UNL     1       4.683   2.590   1.514  1.00  0.00     0.012 C 
ATOM     12  O   UNL     1       3.679   1.807   1.989  1.00  0.00    -0.405 OA
ATOM     13  O   UNL     1       5.840   2.202   1.425  1.00  0.00    -0.827 OA
ENDBRANCH   8  11
ENDBRANCH   5   8
BRANCH   4  14
ATOM     14  C   UNL     1       0.107   3.188  -0.493  1.00  0.00     0.023 C 
ATOM     15  O   UNL     1      -0.681   2.704  -1.484  1.00  0.00    -0.404 OA
ATOM     16  O   UNL     1      -0.087   2.994   0.698  1.00  0.00    -0.826 OA
ENDBRANCH   4  14
TORSDOF 4
ENDMDL
MODEL 4
REMARK VINA RESULT:    -5.642      2.636      5.367
REMARK INTER + INTRA:          -6.903
REMARK INTER:                  -7.161
REMARK INTRA:                   0.258
REMARK UNBOUND:                 0.059
REMARK SMILES CC1(C)S[C@H]([C@@H](CO)[C]([O-])O)N[C@H]1[C]([O-])O
REMARK SMILES IDX 4 1 12 2 2 3 13 4 5 5 1 6 3 7 6 8 7 9 8 10 9 11 11 12 10 13
REMARK SMILES IDX 14 14 16 15 15 16
REMARK H PARENT
REMARK INDEX MAP 1 1 7 2 8 3 9 4 10 5 12 6 13 7 11 8 15 9 3 10 16 11 5 12 6 13
REMARK INDEX MAP 14 14 2 15 4 16
REMARK Flexibility Score: inf
ROOT
ATOM      1  S   UNL     1       3.876   4.884  -0.037  1.00  0.00    -0.135 SA
ATOM      2  N   UNL     1       2.991   3.887   2.277  1.00  0.00    -0.299 NA
ATOM      3  C   UNL     1       4.905   5.138   1.452  1.00  0.00     0.029 C 
ATOM      4  C   UNL     1       4.448   4.014   2.405  1.00  0.00     0.037 C 
ATOM      5  C   UNL     1       2.641   3.883   0.854  1.00  0.00     0.061 C 
ATOM      6  C   UNL     1       4.566   6.522   2.031  1.00  0.00    -0.049 C 
ATOM      7  C   UNL     1       6.391   5.083   1.095  1.00  0.00    -0.049 C 
ENDROOT
BRANCH   5   8
ATOM      8  C   UNL     1       1.244   4.450   0.658  1.00  0.00     0.022 C 
BRANCH   8   9
ATOM      9  C   UNL     1       1.238   5.500  -0.456  1.00  0.00     0.050 C 
ATOM     10  O   UNL     1       0.196   6.438  -0.214  1.00  0.00    -0.396 OA
ENDBRANCH   8   9
BRANCH   8  11
ATOM     11  C   UNL     1       0.284   3.313   0.344  1.00  0.00     0.012 C 
ATOM     12  O   UNL     1       0.050   2.527   1.428  1.00  0.00    -0.405 OA
ATOM     13  O   UNL     1      -0.224   3.102  -0.750  1.00  0.00    -0.827 OA
ENDBRANCH   8  11
ENDBRANCH   5   8
BRANCH   4  14
ATOM     14  C   UNL     1       5.054   2.660   2.154  1.00  0.00     0.023 C 
ATOM     15  O   UNL     1       4.868   1.847   3.223  1.00  0.00    -0.404 OA
ATOM     16  O   UNL     1       5.636   2.330   1.131  1.00  0.00    -0.826 OA
ENDBRANCH   4  14
TORSDOF 4
ENDMDL
MODEL 5
REMARK VINA RESULT:    -5.619      1.534      1.857
REMARK INTER + INTRA:          -6.874
REMARK INTER:                  -7.385
REMARK INTRA:                   0.511
REMARK UNBOUND:                 0.059
REMARK SMILES CC1(C)S[C@H]([C@@H](CO)[C]([O-])O)N[C@H]1[C]([O-])O
REMARK SMILES IDX 4 1 12 2 2 3 13 4 5 5 1 6 3 7 6 8 7 9 8 10 9 11 11 12 10 13
REMARK SMILES IDX 14 14 16 15 15 16
REMARK H PARENT
REMARK INDEX MAP 1 1 7 2 8 3 9 4 10 5 12 6 13 7 11 8 15 9 3 10 16 11 5 12 6 13
REMARK INDEX MAP 14 14 2 15 4 16
REMARK Flexibility Score: inf
ROOT
ATOM      1  S   UNL     1      -0.084   5.629  -0.457  1.00  0.00    -0.135 SA
ATOM      2  N   UNL     1       0.753   3.477  -1.800  1.00  0.00    -0.299 NA
ATOM      3  C   UNL     1      -0.257   5.636  -2.277  1.00  0.00     0.029 C 
ATOM      4  C   UNL     1      -0.245   4.139  -2.648  1.00  0.00     0.037 C 
ATOM      5  C   UNL     1       0.570   3.929  -0.418  1.00  0.00     0.061 C 
ATOM      6  C   UNL     1       0.966   6.359  -2.865  1.00  0.00    -0.049 C 
ATOM      7  C   UNL     1      -1.533   6.369  -2.694  1.00  0.00    -0.049 C 
ENDROOT
BRANCH   5   8
ATOM      8  C   UNL     1       1.894   3.878   0.328  1.00  0.00     0.022 C 
BRANCH   8   9
ATOM      9  C   UNL     1       2.177   5.214   1.020  1.00  0.00     0.050 C 
ATOM     10  O   UNL     1       3.551   5.546   0.861  1.00  0.00    -0.396 OA
ENDBRANCH   8   9
BRANCH   8  11
ATOM     11  C   UNL     1       1.857   2.738   1.334  1.00  0.00     0.012 C 
ATOM     12  O   UNL     1       0.589   2.320   1.588  1.00  0.00    -0.405 OA
ATOM     13  O   UNL     1       2.838   2.244   1.875  1.00  0.00    -0.827 OA
ENDBRANCH   8  11
ENDBRANCH   5   8
BRANCH   4  14
ATOM     14  C   UNL     1      -1.552   3.414  -2.477  1.00  0.00     0.023 C 
ATOM     15  O   UNL     1      -1.372   2.257  -1.794  1.00  0.00    -0.404 OA
ATOM     16  O   UNL     1      -2.633   3.807  -2.892  1.00  0.00    -0.826 OA
ENDBRANCH   4  14
TORSDOF 4
ENDMDL
