MODEL 1
REMARK VINA RESULT:    -5.480      0.000      0.000
REMARK INTER + INTRA:          -6.388
REMARK INTER:                  -6.206
REMARK INTRA:                  -0.182
REMARK UNBOUND:                -0.267
REMARK SMILES [O-][C](N1CCOCC1)N1CCS1([O-])[O-]
REMARK SMILES IDX 2 1 1 2 3 3 4 4 5 5 6 6 8 7 7 8 9 9 10 10 12 11 11 12 13 13
REMARK SMILES IDX 14 14
REMARK H PARENT
REMARK INDEX MAP 7 1 8 2 6 3 1 4 2 5 3 6 5 7 4 8 9 9 10 10 12 11 11 12 13 13
REMARK INDEX MAP 14 14
REMARK Flexibility Score: inf
ROOT
ATOM      1  C   UNL     1      11.449   7.281  -5.012  1.00  0.00     0.029 C 
ATOM      2  O   UNL     1      11.524   7.811  -3.880  1.00  0.00    -0.824 OA
ENDROOT
BRANCH   1   3
ATOM      3  N   UNL     1      12.263   7.762  -6.196  1.00  0.00    -0.292 NA
ATOM      4  C   UNL     1      13.387   8.668  -5.824  1.00  0.00     0.022 C 
ATOM      5  C   UNL     1      14.386   8.957  -6.987  1.00  0.00     0.059 C 
ATOM      6  O   UNL     1      13.880   8.505  -8.291  1.00  0.00    -0.379 OA
ATOM      7  C   UNL     1      12.799   6.612  -6.972  1.00  0.00     0.022 C 
ATOM      8  C   UNL     1      13.419   7.095  -8.308  1.00  0.00     0.059 C 
ENDBRANCH   1   3
BRANCH   1   9
ATOM      9  N   UNL     1      10.559   6.113  -5.298  1.00  0.00    -0.263 NA
ATOM     10  C   UNL     1       9.196   6.318  -4.683  1.00  0.00     0.025 C 
ATOM     11  S   UNL     1      10.844   4.694  -4.462  1.00  0.00    -0.478 S 
ATOM     12  C   UNL     1       9.224   5.090  -3.739  1.00  0.00    -0.003 C 
ATOM     13  O   UNL     1      10.841   3.459  -5.341  1.00  0.00    -0.787 OA
ATOM     14  O   UNL     1      11.957   4.736  -3.446  1.00  0.00    -0.787 OA
ENDBRANCH   1   9
TORSDOF 2
ENDMDL
MODEL 2
REMARK VINA RESULT:    -5.224     14.054     15.681
REMARK INTER + INTRA:          -6.102
REMARK INTER:                  -5.820
REMARK INTRA:                  -0.283
REMARK UNBOUND:                -0.267
REMARK SMILES [O-][C](N1CCOCC1)N1CCS1([O-])[O-]
REMARK SMILES IDX 2 1 1 2 3 3 4 4 5 5 6 6 8 7 7 8 9 9 10 10 12 11 11 12 13 13
REMARK SMILES IDX 14 14
REMARK H PARENT
REMARK INDEX MAP 7 1 8 2 6 3 1 4 2 5 3 6 5 7 4 8 9 9 10 10 12 11 11 12 13 13
REMARK INDEX MAP 14 14
REMARK Flexibility Score: inf
ROOT
ATOM      1  C   UNL     1       3.689  -3.847   1.978  1.00  0.00     0.029 C 
ATOM      2  O   UNL     1       3.640  -4.326   3.134  1.00  0.00    -0.824 OA
ENDROOT
BRANCH   1   3
ATOM      3  N   UNL     1       3.463  -4.684   0.736  1.00  0.00    -0.292 NA
ATOM      4  C   UNL     1       4.094  -6.034   0.798  1.00  0.00     0.022 C 
ATOM      5  C   UNL     1       3.653  -6.998  -0.347  1.00  0.00     0.059 C 
ATOM      6  O   UNL     1       2.919  -6.306  -1.415  1.00  0.00    -0.379 OA
ATOM      7  C   UNL     1       2.010  -4.836   0.457  1.00  0.00     0.022 C 
ATOM      8  C   UNL     1       1.785  -5.479  -0.936  1.00  0.00     0.059 C 
ENDBRANCH   1   3
BRANCH   1   9
ATOM      9  N   UNL     1       3.962  -2.400   1.716  1.00  0.00    -0.263 NA
ATOM     10  C   UNL     1       4.763  -1.795   2.842  1.00  0.00     0.025 C 
ATOM     11  S   UNL     1       2.695  -1.324   1.894  1.00  0.00    -0.478 S 
ATOM     12  C   UNL     1       3.721  -0.734   3.273  1.00  0.00    -0.003 C 
ATOM     13  O   UNL     1       2.571  -0.336   0.751  1.00  0.00    -0.787 OA
ATOM     14  O   UNL     1       1.386  -1.913   2.357  1.00  0.00    -0.787 OA
ENDBRANCH   1   9
TORSDOF 2
ENDMDL
MODEL 3
REMARK VINA RESULT:    -5.067     14.694     16.207
REMARK INTER + INTRA:          -5.927
REMARK INTER:                  -5.848
REMARK INTRA:                  -0.079
REMARK UNBOUND:                -0.267
REMARK SMILES [O-][C](N1CCOCC1)N1CCS1([O-])[O-]
REMARK SMILES IDX 2 1 1 2 3 3 4 4 5 5 6 6 8 7 7 8 9 9 10 10 12 11 11 12 13 13
REMARK SMILES IDX 14 14
REMARK H PARENT
REMARK INDEX MAP 7 1 8 2 6 3 1 4 2 5 3 6 5 7 4 8 9 9 10 10 12 11 11 12 13 13
REMARK INDEX MAP 14 14
REMARK Flexibility Score: inf
ROOT
ATOM      1  C   UNL     1       0.421  -3.533   0.486  1.00  0.00     0.029 C 
ATOM      2  O   UNL     1      -0.475  -2.960   1.146  1.00  0.00    -0.824 OA
ENDROOT
BRANCH   1   3
ATOM      3  N   UNL     1       1.894  -3.400   0.816  1.00  0.00    -0.292 NA
ATOM      4  C   UNL     1       2.297  -2.021   1.218  1.00  0.00     0.022 C 
ATOM      5  C   UNL     1       3.736  -1.924   1.811  1.00  0.00     0.059 C 
ATOM      6  O   UNL     1       4.515  -3.153   1.607  1.00  0.00    -0.379 OA
ATOM      7  C   UNL     1       2.285  -4.355   1.887  1.00  0.00     0.022 C 
ATOM      8  C   UNL     1       3.826  -4.389   2.052  1.00  0.00     0.059 C 
ENDBRANCH   1   3
BRANCH   1   9
ATOM      9  N   UNL     1       0.121  -4.415  -0.684  1.00  0.00    -0.263 NA
ATOM     10  C   UNL     1       1.283  -4.442  -1.646  1.00  0.00     0.025 C 
ATOM     11  S   UNL     1      -0.956  -3.848  -1.830  1.00  0.00    -0.478 S 
ATOM     12  C   UNL     1       0.535  -3.855  -2.869  1.00  0.00    -0.003 C 
ATOM     13  O   UNL     1      -1.999  -4.868  -2.243  1.00  0.00    -0.787 OA
ATOM     14  O   UNL     1      -1.496  -2.459  -1.602  1.00  0.00    -0.787 OA
ENDBRANCH   1   9
TORSDOF 2
ENDMDL
MODEL 4
REMARK VINA RESULT:    -5.020     15.329     16.353
REMARK INTER + INTRA:          -5.874
REMARK INTER:                  -6.025
REMARK INTRA:                   0.151
REMARK UNBOUND:                -0.267
REMARK SMILES [O-][C](N1CCOCC1)N1CCS1([O-])[O-]
REMARK SMILES IDX 2 1 1 2 3 3 4 4 5 5 6 6 8 7 7 8 9 9 10 10 12 11 11 12 13 13
REMARK SMILES IDX 14 14
REMARK H PARENT
REMARK INDEX MAP 7 1 8 2 6 3 1 4 2 5 3 6 5 7 4 8 9 9 10 10 12 11 11 12 13 13
REMARK INDEX MAP 14 14
REMARK Flexibility Score: inf
ROOT
ATOM      1  C   UNL     1       0.912  -3.302   1.217  1.00  0.00     0.029 C 
ATOM      2  O   UNL     1       0.201  -2.535   1.905  1.00  0.00    -0.824 OA
ENDROOT
BRANCH   1   3
ATOM      3  N   UNL     1       0.362  -4.112   0.061  1.00  0.00    -0.292 NA
ATOM      4  C   UNL     1      -0.646  -3.381  -0.760  1.00  0.00     0.022 C 
ATOM      5  C   UNL     1      -1.021  -4.094  -2.095  1.00  0.00     0.059 C 
ATOM      6  O   UNL     1      -0.521  -5.474  -2.157  1.00  0.00    -0.379 OA
ATOM      7  C   UNL     1       1.460  -4.588  -0.823  1.00  0.00     0.022 C 
ATOM      8  C   UNL     1       0.925  -5.610  -1.857  1.00  0.00     0.059 C 
ENDBRANCH   1   3
BRANCH   1   9
ATOM      9  N   UNL     1       2.377  -3.481   1.465  1.00  0.00    -0.263 NA
ATOM     10  C   UNL     1       2.612  -4.407   2.632  1.00  0.00     0.025 C 
ATOM     11  S   UNL     1       3.209  -2.210   2.163  1.00  0.00    -0.478 S 
ATOM     12  C   UNL     1       3.360  -3.394   3.534  1.00  0.00    -0.003 C 
ATOM     13  O   UNL     1       4.521  -1.892   1.476  1.00  0.00    -0.787 OA
ATOM     14  O   UNL     1       2.385  -1.002   2.531  1.00  0.00    -0.787 OA
ENDBRANCH   1   9
TORSDOF 2
ENDMDL
MODEL 5
REMARK VINA RESULT:    -4.865     14.309     16.189
REMARK INTER + INTRA:          -5.701
REMARK INTER:                  -5.431
REMARK INTRA:                  -0.270
REMARK UNBOUND:                -0.267
REMARK SMILES [O-][C](N1CCOCC1)N1CCS1([O-])[O-]
REMARK SMILES IDX 2 1 1 2 3 3 4 4 5 5 6 6 8 7 7 8 9 9 10 10 12 11 11 12 13 13
REMARK SMILES IDX 14 14
REMARK H PARENT
REMARK INDEX MAP 7 1 8 2 6 3 1 4 2 5 3 6 5 7 4 8 9 9 10 10 12 11 11 12 13 13
REMARK INDEX MAP 14 14
REMARK Flexibility Score: inf
ROOT
ATOM      1  C   UNL     1       4.038  -4.012   2.824  1.00  0.00     0.029 C 
ATOM      2  O   UNL     1       3.977  -4.107   4.070  1.00  0.00    -0.824 OA
ENDROOT
BRANCH   1   3
ATOM      3  N   UNL     1       4.101  -5.221   1.912  1.00  0.00    -0.292 NA
ATOM      4  C   UNL     1       4.789  -6.396   2.520  1.00  0.00     0.022 C 
ATOM      5  C   UNL     1       4.631  -7.718   1.708  1.00  0.00     0.059 C 
ATOM      6  O   UNL     1       4.072  -7.494   0.368  1.00  0.00    -0.379 OA
ATOM      7  C   UNL     1       2.739  -5.625   1.472  1.00  0.00     0.022 C 
ATOM      8  C   UNL     1       2.821  -6.697   0.357  1.00  0.00     0.059 C 
ENDBRANCH   1   3
BRANCH   1   9
ATOM      9  N   UNL     1       4.039  -2.694   2.116  1.00  0.00    -0.263 NA
ATOM     10  C   UNL     1       4.714  -1.638   2.955  1.00  0.00     0.025 C 
ATOM     11  S   UNL     1       2.595  -1.857   2.026  1.00  0.00    -0.478 S 
ATOM     12  C   UNL     1       3.493  -0.695   3.097  1.00  0.00    -0.003 C 
ATOM     13  O   UNL     1       2.292  -1.312   0.645  1.00  0.00    -0.787 OA
ATOM     14  O   UNL     1       1.417  -2.492   2.720  1.00  0.00    -0.787 OA
ENDBRANCH   1   9
TORSDOF 2
ENDMDL
