REMARK SMILES [O-][C](N1CCOCC1)N1CCS1([O-])[O-]
REMARK SMILES IDX 2 1 1 2 3 3 4 4 5 5 6 6 8 7 7 8 9 9 10 10 12 11 11 12 13 13
REMARK SMILES IDX 14 14
REMARK H PARENT
REMARK INDEX MAP 7 1 8 2 6 3 1 4 2 5 3 6 5 7 4 8 9 9 10 10 12 11 11 12 13 13
REMARK INDEX MAP 14 14
REMARK Flexibility Score: inf
ROOT
ATOM      1  C   UNL     1       9.169  -6.865  -4.192  1.00  0.00     0.029 C 
ATOM      2  O   UNL     1       8.215  -7.335  -3.531  1.00  0.00    -0.824 OA
ENDROOT
BRANCH   1   3
ATOM      3  N   UNL     1       9.934  -5.630  -3.762  1.00  0.00    -0.292 NA
ATOM      4  C   UNL     1      10.949  -5.893  -2.701  1.00  0.00     0.022 C 
ATOM      5  C   UNL     1      11.920  -4.701  -2.438  1.00  0.00     0.059 C 
ATOM      6  O   UNL     1      11.477  -3.459  -3.086  1.00  0.00    -0.379 OA
ATOM      7  C   UNL     1      10.599  -4.987  -4.926  1.00  0.00     0.022 C 
ATOM      8  C   UNL     1      11.173  -3.603  -4.531  1.00  0.00     0.059 C 
ENDBRANCH   1   3
BRANCH   1   9
ATOM      9  N   UNL     1       9.650  -7.487  -5.465  1.00  0.00    -0.263 NA
ATOM     10  C   UNL     1       8.534  -8.236  -6.149  1.00  0.00     0.025 C 
ATOM     11  S   UNL     1      10.633  -8.834  -5.350  1.00  0.00    -0.478 S 
ATOM     12  C   UNL     1       9.191  -9.638  -6.110  1.00  0.00    -0.003 C 
ATOM     13  O   UNL     1      11.851  -8.777  -6.249  1.00  0.00    -0.787 OA
ATOM     14  O   UNL     1      10.907  -9.337  -3.955  1.00  0.00    -0.787 OA
ENDBRANCH   1   9
TORSDOF 2
