MODEL 1
REMARK VINA RESULT:    -7.511      0.000      0.000
REMARK INTER + INTRA:          -9.333
REMARK INTER:                  -9.272
REMARK INTRA:                  -0.060
REMARK UNBOUND:                -0.504
REMARK SMILES O=C(Nc1ccc2c(c1)OC(F)(F)O2)Nc1ccc(Cl)c(C(F)(F)F)c1
REMARK SMILES IDX 20 1 16 2 21 3 26 4 17 5 19 6 18 7 22 8 23 9 24 10 25 11
REMARK SMILES IDX 15 12 2 13 1 15 3 16 4 18 9 19 5 20 8 21 6 22 10 23 7 24
REMARK SMILES IDX 11 25 14 26 12 27 13 28
REMARK H PARENT 15 14 3 17
REMARK Flexibility Score: inf
ROOT
ATOM      1  Cl  UNL     1      91.018  -0.496  15.313  1.00  0.00    -0.084 Cl
ATOM      2  C   UNL     1      87.154   1.089  13.596  1.00  0.00     0.043 A 
ATOM      3  C   UNL     1      88.537  -0.790  14.225  1.00  0.00     0.076 A 
ATOM      4  C   UNL     1      87.347  -0.289  13.697  1.00  0.00     0.040 A 
ATOM      5  C   UNL     1      88.152   1.965  14.023  1.00  0.00     0.028 A 
ATOM      6  C   UNL     1      89.534   0.087  14.652  1.00  0.00     0.053 A 
ATOM      7  C   UNL     1      89.342   1.464  14.551  1.00  0.00     0.023 A 
ENDROOT
BRANCH   3   8
ATOM      8  C   UNL     1      88.703  -2.272  14.318  1.00  0.00     0.417 C 
ATOM      9  F   UNL     1      88.500  -2.742  15.582  1.00  0.00    -0.166 F 
ATOM     10  F   UNL     1      87.840  -2.968  13.523  1.00  0.00    -0.166 F 
ATOM     11  F   UNL     1      89.948  -2.703  13.960  1.00  0.00    -0.166 F 
ENDBRANCH   3   8
BRANCH   2  12
ATOM     12  N   UNL     1      85.948   1.597  13.059  1.00  0.00    -0.308 N 
ATOM     13  C   UNL     1      85.117   1.009  12.092  1.00  0.00     0.323 C 
ATOM     14  H   UNL     1      85.654   2.499  13.425  1.00  0.00     0.171 HD
ATOM     15  O   UNL     1      85.317  -0.071  11.547  1.00  0.00    -0.248 OA
ATOM     16  N   UNL     1      84.006   1.849  11.834  1.00  0.00    -0.308 N 
ATOM     17  H   UNL     1      83.972   2.717  12.363  1.00  0.00     0.171 HD
BRANCH  16  18
ATOM     18  C   UNL     1      82.946   1.645  10.949  1.00  0.00     0.046 A 
ATOM     19  C   UNL     1      81.723   1.174  11.431  1.00  0.00     0.077 A 
ATOM     20  C   UNL     1      83.121   1.915   9.580  1.00  0.00     0.030 A 
ATOM     21  C   UNL     1      80.704   0.988  10.519  1.00  0.00     0.174 A 
ATOM     22  C   UNL     1      82.074   1.717   8.677  1.00  0.00     0.053 A 
ATOM     23  O   UNL     1      79.451   0.539  10.803  1.00  0.00    -0.395 OA
ATOM     24  C   UNL     1      80.876   1.253   9.178  1.00  0.00     0.172 A 
ATOM     25  C   UNL     1      78.869   0.554   9.493  1.00  0.00     0.586 C 
ATOM     26  O   UNL     1      79.750   1.003   8.452  1.00  0.00    -0.395 OA
ATOM     27  F   UNL     1      77.777   1.359   9.512  1.00  0.00    -0.125 F 
ATOM     28  F   UNL     1      78.446  -0.699   9.191  1.00  0.00    -0.125 F 
ENDBRANCH  16  18
ENDBRANCH   2  12
TORSDOF 3
ENDMDL
MODEL 2
REMARK VINA RESULT:    -7.260      1.899      2.312
REMARK INTER + INTRA:          -9.038
REMARK INTER:                  -8.639
REMARK INTRA:                  -0.399
REMARK UNBOUND:                -0.504
REMARK SMILES O=C(Nc1ccc2c(c1)OC(F)(F)O2)Nc1ccc(Cl)c(C(F)(F)F)c1
REMARK SMILES IDX 20 1 16 2 21 3 26 4 17 5 19 6 18 7 22 8 23 9 24 10 25 11
REMARK SMILES IDX 15 12 2 13 1 15 3 16 4 18 9 19 5 20 8 21 6 22 10 23 7 24
REMARK SMILES IDX 11 25 14 26 12 27 13 28
REMARK H PARENT 15 14 3 17
REMARK Flexibility Score: inf
ROOT
ATOM      1  Cl  UNL     1      89.815  -3.579  12.627  1.00  0.00    -0.084 Cl
ATOM      2  C   UNL     1      86.427  -0.731  11.735  1.00  0.00     0.043 A 
ATOM      3  C   UNL     1      87.886  -1.791  13.342  1.00  0.00     0.076 A 
ATOM      4  C   UNL     1      86.841  -0.913  13.054  1.00  0.00     0.040 A 
ATOM      5  C   UNL     1      87.057  -1.427  10.703  1.00  0.00     0.028 A 
ATOM      6  C   UNL     1      88.516  -2.487  12.310  1.00  0.00     0.053 A 
ATOM      7  C   UNL     1      88.102  -2.305  10.991  1.00  0.00     0.023 A 
ENDROOT
BRANCH   3   8
ATOM      8  C   UNL     1      88.302  -1.957  14.767  1.00  0.00     0.417 C 
ATOM      9  F   UNL     1      87.445  -1.349  15.636  1.00  0.00    -0.166 F 
ATOM     10  F   UNL     1      88.369  -3.260  15.167  1.00  0.00    -0.166 F 
ATOM     11  F   UNL     1      89.534  -1.435  15.039  1.00  0.00    -0.166 F 
ENDBRANCH   3   8
BRANCH   2  12
ATOM     12  N   UNL     1      85.366   0.159  11.443  1.00  0.00    -0.308 N 
ATOM     13  C   UNL     1      84.174  -0.114  10.752  1.00  0.00     0.323 C 
ATOM     14  H   UNL     1      85.490   1.110  11.780  1.00  0.00     0.171 HD
ATOM     15  O   UNL     1      83.861  -1.202  10.281  1.00  0.00    -0.248 OA
ATOM     16  N   UNL     1      83.380   1.056  10.678  1.00  0.00    -0.308 N 
ATOM     17  H   UNL     1      83.770   1.887  11.115  1.00  0.00     0.171 HD
BRANCH  16  18
ATOM     18  C   UNL     1      82.129   1.223  10.083  1.00  0.00     0.046 A 
ATOM     19  C   UNL     1      80.973   0.925  10.808  1.00  0.00     0.077 A 
ATOM     20  C   UNL     1      82.044   1.689   8.759  1.00  0.00     0.030 A 
ATOM     21  C   UNL     1      79.758   1.106  10.178  1.00  0.00     0.174 A 
ATOM     22  C   UNL     1      80.802   1.863   8.145  1.00  0.00     0.053 A 
ATOM     23  O   UNL     1      78.533   0.869  10.724  1.00  0.00    -0.395 OA
ATOM     24  C   UNL     1      79.675   1.563   8.881  1.00  0.00     0.172 A 
ATOM     25  C   UNL     1      77.687   1.228   9.623  1.00  0.00     0.586 C 
ATOM     26  O   UNL     1      78.387   1.671   8.450  1.00  0.00    -0.395 OA
ATOM     27  F   UNL     1      76.849   2.216  10.025  1.00  0.00    -0.125 F 
ATOM     28  F   UNL     1      76.925   0.155   9.293  1.00  0.00    -0.125 F 
ENDBRANCH  16  18
ENDBRANCH   2  12
TORSDOF 3
ENDMDL
MODEL 3
REMARK VINA RESULT:    -7.227      6.463      9.704
REMARK INTER + INTRA:          -8.999
REMARK INTER:                  -8.463
REMARK INTRA:                  -0.536
REMARK UNBOUND:                -0.504
REMARK SMILES O=C(Nc1ccc2c(c1)OC(F)(F)O2)Nc1ccc(Cl)c(C(F)(F)F)c1
REMARK SMILES IDX 20 1 16 2 21 3 26 4 17 5 19 6 18 7 22 8 23 9 24 10 25 11
REMARK SMILES IDX 15 12 2 13 1 15 3 16 4 18 9 19 5 20 8 21 6 22 10 23 7 24
REMARK SMILES IDX 11 25 14 26 12 27 13 28
REMARK H PARENT 15 14 3 17
REMARK Flexibility Score: inf
ROOT
ATOM      1  Cl  UNL     1      83.657  12.064  11.359  1.00  0.00    -0.084 Cl
ATOM      2  C   UNL     1      84.876   7.740  10.907  1.00  0.00     0.043 A 
ATOM      3  C   UNL     1      83.393   9.397  11.851  1.00  0.00     0.076 A 
ATOM      4  C   UNL     1      83.778   8.064  11.703  1.00  0.00     0.040 A 
ATOM      5  C   UNL     1      85.590   8.749  10.259  1.00  0.00     0.028 A 
ATOM      6  C   UNL     1      84.106  10.405  11.203  1.00  0.00     0.053 A 
ATOM      7  C   UNL     1      85.204  10.081  10.407  1.00  0.00     0.023 A 
ENDROOT
BRANCH   3   8
ATOM      8  C   UNL     1      82.209   9.702  12.710  1.00  0.00     0.417 C 
ATOM      9  F   UNL     1      82.547  10.389  13.839  1.00  0.00    -0.166 F 
ATOM     10  F   UNL     1      81.264  10.463  12.085  1.00  0.00    -0.166 F 
ATOM     11  F   UNL     1      81.547   8.589  13.140  1.00  0.00    -0.166 F 
ENDBRANCH   3   8
BRANCH   2  12
ATOM     12  N   UNL     1      85.268   6.389  10.758  1.00  0.00    -0.308 N 
ATOM     13  C   UNL     1      85.903   5.564  11.701  1.00  0.00     0.323 C 
ATOM     14  H   UNL     1      85.061   5.972   9.854  1.00  0.00     0.171 HD
ATOM     15  O   UNL     1      86.223   5.900  12.836  1.00  0.00    -0.248 OA
ATOM     16  N   UNL     1      86.119   4.277  11.150  1.00  0.00    -0.308 N 
ATOM     17  H   UNL     1      85.799   4.143  10.194  1.00  0.00     0.171 HD
BRANCH  16  18
ATOM     18  C   UNL     1      86.715   3.164  11.744  1.00  0.00     0.046 A 
ATOM     19  C   UNL     1      85.930   2.262  12.465  1.00  0.00     0.077 A 
ATOM     20  C   UNL     1      88.100   2.962  11.611  1.00  0.00     0.030 A 
ATOM     21  C   UNL     1      86.562   1.176  13.035  1.00  0.00     0.174 A 
ATOM     22  C   UNL     1      88.716   1.854  12.197  1.00  0.00     0.053 A 
ATOM     23  O   UNL     1      85.964   0.198  13.769  1.00  0.00    -0.395 OA
ATOM     24  C   UNL     1      87.919   0.977  12.904  1.00  0.00     0.172 A 
ATOM     25  C   UNL     1      87.098  -0.623  14.077  1.00  0.00     0.586 C 
ATOM     26  O   UNL     1      88.342  -0.151  13.540  1.00  0.00    -0.395 OA
ATOM     27  F   UNL     1      86.870  -1.874  13.604  1.00  0.00    -0.125 F 
ATOM     28  F   UNL     1      87.215  -0.712  15.426  1.00  0.00    -0.125 F 
ENDBRANCH  16  18
ENDBRANCH   2  12
TORSDOF 3
ENDMDL
MODEL 4
REMARK VINA RESULT:    -7.193      3.868      9.758
REMARK INTER + INTRA:          -8.959
REMARK INTER:                  -8.563
REMARK INTRA:                  -0.396
REMARK UNBOUND:                -0.504
REMARK SMILES O=C(Nc1ccc2c(c1)OC(F)(F)O2)Nc1ccc(Cl)c(C(F)(F)F)c1
REMARK SMILES IDX 20 1 16 2 21 3 26 4 17 5 19 6 18 7 22 8 23 9 24 10 25 11
REMARK SMILES IDX 15 12 2 13 1 15 3 16 4 18 9 19 5 20 8 21 6 22 10 23 7 24
REMARK SMILES IDX 11 25 14 26 12 27 13 28
REMARK H PARENT 15 14 3 17
REMARK Flexibility Score: inf
ROOT
ATOM      1  Cl  UNL     1      76.832   1.354   8.566  1.00  0.00    -0.084 Cl
ATOM      2  C   UNL     1      81.098   1.247  10.041  1.00  0.00     0.043 A 
ATOM      3  C   UNL     1      79.522   1.664   8.258  1.00  0.00     0.076 A 
ATOM      4  C   UNL     1      80.836   1.629   8.726  1.00  0.00     0.040 A 
ATOM      5  C   UNL     1      80.046   0.901  10.890  1.00  0.00     0.028 A 
ATOM      6  C   UNL     1      78.470   1.318   9.107  1.00  0.00     0.053 A 
ATOM      7  C   UNL     1      78.732   0.937  10.422  1.00  0.00     0.023 A 
ENDROOT
BRANCH   3   8
ATOM      8  C   UNL     1      79.282   2.081   6.843  1.00  0.00     0.417 C 
ATOM      9  F   UNL     1      78.672   1.108   6.109  1.00  0.00    -0.166 F 
ATOM     10  F   UNL     1      78.487   3.184   6.727  1.00  0.00    -0.166 F 
ATOM     11  F   UNL     1      80.427   2.391   6.167  1.00  0.00    -0.166 F 
ENDBRANCH   3   8
BRANCH   2  12
ATOM     12  N   UNL     1      82.430   1.209  10.514  1.00  0.00    -0.308 N 
ATOM     13  C   UNL     1      83.122   0.117  11.063  1.00  0.00     0.323 C 
ATOM     14  H   UNL     1      82.943   2.085  10.444  1.00  0.00     0.171 HD
ATOM     15  O   UNL     1      82.661  -1.008  11.220  1.00  0.00    -0.248 OA
ATOM     16  N   UNL     1      84.439   0.505  11.411  1.00  0.00    -0.308 N 
ATOM     17  H   UNL     1      84.683   1.474  11.222  1.00  0.00     0.171 HD
BRANCH  16  18
ATOM     18  C   UNL     1      85.453  -0.267  11.980  1.00  0.00     0.046 A 
ATOM     19  C   UNL     1      85.841  -0.034  13.301  1.00  0.00     0.077 A 
ATOM     20  C   UNL     1      86.074  -1.272  11.218  1.00  0.00     0.030 A 
ATOM     21  C   UNL     1      86.847  -0.822  13.822  1.00  0.00     0.174 A 
ATOM     22  C   UNL     1      87.091  -2.056  11.768  1.00  0.00     0.053 A 
ATOM     23  O   UNL     1      87.354  -0.740  15.083  1.00  0.00    -0.395 OA
ATOM     24  C   UNL     1      87.456  -1.806  13.075  1.00  0.00     0.172 A 
ATOM     25  C   UNL     1      88.340  -1.779  15.032  1.00  0.00     0.586 C 
ATOM     26  O   UNL     1      88.421  -2.467  13.774  1.00  0.00    -0.395 OA
ATOM     27  F   UNL     1      88.067  -2.685  16.004  1.00  0.00    -0.125 F 
ATOM     28  F   UNL     1      89.554  -1.238  15.308  1.00  0.00    -0.125 F 
ENDBRANCH  16  18
ENDBRANCH   2  12
TORSDOF 3
ENDMDL
MODEL 5
REMARK VINA RESULT:    -7.164      5.632      9.301
REMARK INTER + INTRA:          -8.924
REMARK INTER:                  -8.623
REMARK INTRA:                  -0.301
REMARK UNBOUND:                -0.504
REMARK SMILES O=C(Nc1ccc2c(c1)OC(F)(F)O2)Nc1ccc(Cl)c(C(F)(F)F)c1
REMARK SMILES IDX 20 1 16 2 21 3 26 4 17 5 19 6 18 7 22 8 23 9 24 10 25 11
REMARK SMILES IDX 15 12 2 13 1 15 3 16 4 18 9 19 5 20 8 21 6 22 10 23 7 24
REMARK SMILES IDX 11 25 14 26 12 27 13 28
REMARK H PARENT 15 14 3 17
REMARK Flexibility Score: inf
ROOT
ATOM      1  Cl  UNL     1      85.308  10.284  10.504  1.00  0.00    -0.084 Cl
ATOM      2  C   UNL     1      85.965   6.364  12.647  1.00  0.00     0.043 A 
ATOM      3  C   UNL     1      84.496   8.183  12.039  1.00  0.00     0.076 A 
ATOM      4  C   UNL     1      84.710   6.972  12.697  1.00  0.00     0.040 A 
ATOM      5  C   UNL     1      87.005   6.968  11.941  1.00  0.00     0.028 A 
ATOM      6  C   UNL     1      85.536   8.787  11.333  1.00  0.00     0.053 A 
ATOM      7  C   UNL     1      86.791   8.179  11.284  1.00  0.00     0.023 A 
ENDROOT
BRANCH   3   8
ATOM      8  C   UNL     1      83.138   8.801  12.114  1.00  0.00     0.417 C 
ATOM      9  F   UNL     1      82.595   9.021  10.883  1.00  0.00    -0.166 F 
ATOM     10  F   UNL     1      82.228   8.037  12.786  1.00  0.00    -0.166 F 
ATOM     11  F   UNL     1      83.125  10.012  12.744  1.00  0.00    -0.166 F 
ENDBRANCH   3   8
BRANCH   2  12
ATOM     12  N   UNL     1      86.182   5.136  13.315  1.00  0.00    -0.308 N 
ATOM     13  C   UNL     1      86.405   3.871  12.748  1.00  0.00     0.323 C 
ATOM     14  H   UNL     1      86.176   5.185  14.331  1.00  0.00     0.171 HD
ATOM     15  O   UNL     1      86.447   3.630  11.546  1.00  0.00    -0.248 OA
ATOM     16  N   UNL     1      86.577   2.906  13.770  1.00  0.00    -0.308 N 
ATOM     17  H   UNL     1      86.517   3.253  14.724  1.00  0.00     0.171 HD
BRANCH  16  18
ATOM     18  C   UNL     1      86.820   1.537  13.644  1.00  0.00     0.046 A 
ATOM     19  C   UNL     1      87.843   0.945  14.387  1.00  0.00     0.077 A 
ATOM     20  C   UNL     1      86.031   0.768  12.770  1.00  0.00     0.030 A 
ATOM     21  C   UNL     1      88.045  -0.411  14.231  1.00  0.00     0.174 A 
ATOM     22  C   UNL     1      86.257  -0.603  12.630  1.00  0.00     0.053 A 
ATOM     23  O   UNL     1      88.991  -1.156  14.868  1.00  0.00    -0.395 OA
ATOM     24  C   UNL     1      87.273  -1.165  13.375  1.00  0.00     0.172 A 
ATOM     25  C   UNL     1      88.717  -2.449  14.312  1.00  0.00     0.586 C 
ATOM     26  O   UNL     1      87.636  -2.478  13.368  1.00  0.00    -0.395 OA
ATOM     27  F   UNL     1      88.431  -3.305  15.324  1.00  0.00    -0.125 F 
ATOM     28  F   UNL     1      89.839  -2.903  13.698  1.00  0.00    -0.125 F 
ENDBRANCH  16  18
ENDBRANCH   2  12
TORSDOF 3
ENDMDL
MODEL 6
REMARK VINA RESULT:    -7.160      3.734      9.630
REMARK INTER + INTRA:          -8.920
REMARK INTER:                  -8.602
REMARK INTRA:                  -0.318
REMARK UNBOUND:                -0.504
REMARK SMILES O=C(Nc1ccc2c(c1)OC(F)(F)O2)Nc1ccc(Cl)c(C(F)(F)F)c1
REMARK SMILES IDX 20 1 16 2 21 3 26 4 17 5 19 6 18 7 22 8 23 9 24 10 25 11
REMARK SMILES IDX 15 12 2 13 1 15 3 16 4 18 9 19 5 20 8 21 6 22 10 23 7 24
REMARK SMILES IDX 11 25 14 26 12 27 13 28
REMARK H PARENT 15 14 3 17
REMARK Flexibility Score: inf
ROOT
ATOM      1  Cl  UNL     1      78.028   1.425   6.744  1.00  0.00    -0.084 Cl
ATOM      2  C   UNL     1      81.713   1.241   9.345  1.00  0.00     0.043 A 
ATOM      3  C   UNL     1      79.308   1.349   9.148  1.00  0.00     0.076 A 
ATOM      4  C   UNL     1      80.453   1.291   9.942  1.00  0.00     0.040 A 
ATOM      5  C   UNL     1      81.827   1.249   7.955  1.00  0.00     0.028 A 
ATOM      6  C   UNL     1      79.422   1.357   7.758  1.00  0.00     0.053 A 
ATOM      7  C   UNL     1      80.682   1.307   7.162  1.00  0.00     0.023 A 
ENDROOT
BRANCH   3   8
ATOM      8  C   UNL     1      77.977   1.399   9.825  1.00  0.00     0.417 C 
ATOM      9  F   UNL     1      78.075   1.284  11.180  1.00  0.00    -0.166 F 
ATOM     10  F   UNL     1      77.296   2.561   9.603  1.00  0.00    -0.166 F 
ATOM     11  F   UNL     1      77.128   0.405   9.432  1.00  0.00    -0.166 F 
ENDBRANCH   3   8
BRANCH   2  12
ATOM     12  N   UNL     1      82.875   1.183  10.150  1.00  0.00    -0.308 N 
ATOM     13  C   UNL     1      83.614   0.048  10.522  1.00  0.00     0.323 C 
ATOM     14  H   UNL     1      83.210   2.079  10.497  1.00  0.00     0.171 HD
ATOM     15  O   UNL     1      83.356  -1.105  10.194  1.00  0.00    -0.248 OA
ATOM     16  N   UNL     1      84.709   0.429  11.335  1.00  0.00    -0.308 N 
ATOM     17  H   UNL     1      84.798   1.425  11.525  1.00  0.00     0.171 HD
BRANCH  16  18
ATOM     18  C   UNL     1      85.687  -0.380  11.915  1.00  0.00     0.046 A 
ATOM     19  C   UNL     1      86.049  -0.179  13.249  1.00  0.00     0.077 A 
ATOM     20  C   UNL     1      86.298  -1.390  11.151  1.00  0.00     0.030 A 
ATOM     21  C   UNL     1      87.020  -1.004  13.780  1.00  0.00     0.174 A 
ATOM     22  C   UNL     1      87.279  -2.211  11.712  1.00  0.00     0.053 A 
ATOM     23  O   UNL     1      87.499  -0.956  15.053  1.00  0.00    -0.395 OA
ATOM     24  C   UNL     1      87.619  -1.993  13.031  1.00  0.00     0.172 A 
ATOM     25  C   UNL     1      88.457  -2.022  15.008  1.00  0.00     0.586 C 
ATOM     26  O   UNL     1      88.549  -2.691  13.742  1.00  0.00    -0.395 OA
ATOM     27  F   UNL     1      88.135  -2.935  15.958  1.00  0.00    -0.125 F 
ATOM     28  F   UNL     1      89.679  -1.520  15.322  1.00  0.00    -0.125 F 
ENDBRANCH  16  18
ENDBRANCH   2  12
TORSDOF 3
ENDMDL
MODEL 7
REMARK VINA RESULT:    -7.117      3.951      9.435
REMARK INTER + INTRA:          -8.870
REMARK INTER:                  -8.323
REMARK INTRA:                  -0.547
REMARK UNBOUND:                -0.504
REMARK SMILES O=C(Nc1ccc2c(c1)OC(F)(F)O2)Nc1ccc(Cl)c(C(F)(F)F)c1
REMARK SMILES IDX 20 1 16 2 21 3 26 4 17 5 19 6 18 7 22 8 23 9 24 10 25 11
REMARK SMILES IDX 15 12 2 13 1 15 3 16 4 18 9 19 5 20 8 21 6 22 10 23 7 24
REMARK SMILES IDX 11 25 14 26 12 27 13 28
REMARK H PARENT 15 14 3 17
REMARK Flexibility Score: inf
ROOT
ATOM      1  Cl  UNL     1      79.905   0.316   8.077  1.00  0.00    -0.084 Cl
ATOM      2  C   UNL     1      82.936  -0.039  11.404  1.00  0.00     0.043 A 
ATOM      3  C   UNL     1      81.591  -1.088   9.694  1.00  0.00     0.076 A 
ATOM      4  C   UNL     1      82.527  -1.185  10.723  1.00  0.00     0.040 A 
ATOM      5  C   UNL     1      82.409   1.204  11.057  1.00  0.00     0.028 A 
ATOM      6  C   UNL     1      81.063   0.155   9.347  1.00  0.00     0.053 A 
ATOM      7  C   UNL     1      81.472   1.301  10.028  1.00  0.00     0.023 A 
ENDROOT
BRANCH   3   8
ATOM      8  C   UNL     1      81.180  -2.339   8.987  1.00  0.00     0.417 C 
ATOM      9  F   UNL     1      81.887  -3.429   9.401  1.00  0.00    -0.166 F 
ATOM     10  F   UNL     1      79.867  -2.662   9.170  1.00  0.00    -0.166 F 
ATOM     11  F   UNL     1      81.350  -2.280   7.634  1.00  0.00    -0.166 F 
ENDBRANCH   3   8
BRANCH   2  12
ATOM     12  N   UNL     1      83.885  -0.138  12.449  1.00  0.00    -0.308 N 
ATOM     13  C   UNL     1      85.276  -0.298  12.342  1.00  0.00     0.323 C 
ATOM     14  H   UNL     1      83.504  -0.085  13.390  1.00  0.00     0.171 HD
ATOM     15  O   UNL     1      85.901  -0.378  11.290  1.00  0.00    -0.248 OA
ATOM     16  N   UNL     1      85.857  -0.352  13.632  1.00  0.00    -0.308 N 
ATOM     17  H   UNL     1      85.213  -0.272  14.415  1.00  0.00     0.171 HD
BRANCH  16  18
ATOM     18  C   UNL     1      87.202  -0.502  13.976  1.00  0.00     0.046 A 
ATOM     19  C   UNL     1      87.941   0.612  14.378  1.00  0.00     0.077 A 
ATOM     20  C   UNL     1      87.799  -1.774  13.914  1.00  0.00     0.030 A 
ATOM     21  C   UNL     1      89.266   0.416  14.709  1.00  0.00     0.174 A 
ATOM     22  C   UNL     1      89.143  -1.946  14.254  1.00  0.00     0.053 A 
ATOM     23  O   UNL     1      90.137   1.378  15.121  1.00  0.00    -0.395 OA
ATOM     24  C   UNL     1      89.851  -0.830  14.648  1.00  0.00     0.172 A 
ATOM     25  C   UNL     1      91.322   0.591  15.306  1.00  0.00     0.586 C 
ATOM     26  O   UNL     1      91.163  -0.806  15.015  1.00  0.00    -0.395 OA
ATOM     27  F   UNL     1      91.732   0.721  16.592  1.00  0.00    -0.125 F 
ATOM     28  F   UNL     1      92.302   1.090  14.512  1.00  0.00    -0.125 F 
ENDBRANCH  16  18
ENDBRANCH   2  12
TORSDOF 3
ENDMDL
MODEL 8
REMARK VINA RESULT:    -7.027      3.571      9.606
REMARK INTER + INTRA:          -8.764
REMARK INTER:                  -8.413
REMARK INTRA:                  -0.351
REMARK UNBOUND:                -0.504
REMARK SMILES O=C(Nc1ccc2c(c1)OC(F)(F)O2)Nc1ccc(Cl)c(C(F)(F)F)c1
REMARK SMILES IDX 20 1 16 2 21 3 26 4 17 5 19 6 18 7 22 8 23 9 24 10 25 11
REMARK SMILES IDX 15 12 2 13 1 15 3 16 4 18 9 19 5 20 8 21 6 22 10 23 7 24
REMARK SMILES IDX 11 25 14 26 12 27 13 28
REMARK H PARENT 15 14 3 17
REMARK Flexibility Score: inf
ROOT
ATOM      1  Cl  UNL     1      80.078   1.692   7.033  1.00  0.00    -0.084 Cl
ATOM      2  C   UNL     1      83.047   1.652  10.435  1.00  0.00     0.043 A 
ATOM      3  C   UNL     1      80.789   1.330   9.639  1.00  0.00     0.076 A 
ATOM      4  C   UNL     1      81.716   1.320  10.682  1.00  0.00     0.040 A 
ATOM      5  C   UNL     1      83.453   1.994   9.145  1.00  0.00     0.028 A 
ATOM      6  C   UNL     1      81.195   1.672   8.350  1.00  0.00     0.053 A 
ATOM      7  C   UNL     1      82.526   2.004   8.102  1.00  0.00     0.023 A 
ENDROOT
BRANCH   3   8
ATOM      8  C   UNL     1      79.372   0.966   9.945  1.00  0.00     0.417 C 
ATOM      9  F   UNL     1      79.108   0.973  11.282  1.00  0.00    -0.166 F 
ATOM     10  F   UNL     1      78.460   1.812   9.384  1.00  0.00    -0.166 F 
ATOM     11  F   UNL     1      79.024  -0.279   9.507  1.00  0.00    -0.166 F 
ENDBRANCH   3   8
BRANCH   2  12
ATOM     12  N   UNL     1      83.987   1.644  11.493  1.00  0.00    -0.308 N 
ATOM     13  C   UNL     1      85.045   0.745  11.702  1.00  0.00     0.323 C 
ATOM     14  H   UNL     1      83.874   2.383  12.181  1.00  0.00     0.171 HD
ATOM     15  O   UNL     1      85.327  -0.201  10.973  1.00  0.00    -0.248 OA
ATOM     16  N   UNL     1      85.748   1.091  12.882  1.00  0.00    -0.308 N 
ATOM     17  H   UNL     1      85.399   1.903  13.385  1.00  0.00     0.171 HD
BRANCH  16  18
ATOM     18  C   UNL     1      86.858   0.465  13.450  1.00  0.00     0.046 A 
ATOM     19  C   UNL     1      88.062   1.164  13.565  1.00  0.00     0.077 A 
ATOM     20  C   UNL     1      86.754  -0.863  13.901  1.00  0.00     0.030 A 
ATOM     21  C   UNL     1      89.133   0.504  14.134  1.00  0.00     0.174 A 
ATOM     22  C   UNL     1      87.853  -1.508  14.473  1.00  0.00     0.053 A 
ATOM     23  O   UNL     1      90.377   1.021  14.327  1.00  0.00    -0.395 OA
ATOM     24  C   UNL     1      89.031  -0.797  14.575  1.00  0.00     0.172 A 
ATOM     25  C   UNL     1      91.031  -0.101  14.935  1.00  0.00     0.586 C 
ATOM     26  O   UNL     1      90.199  -1.259  15.102  1.00  0.00    -0.395 OA
ATOM     27  F   UNL     1      91.499   0.275  16.151  1.00  0.00    -0.125 F 
ATOM     28  F   UNL     1      92.101  -0.444  14.174  1.00  0.00    -0.125 F 
ENDBRANCH  16  18
ENDBRANCH   2  12
TORSDOF 3
ENDMDL
MODEL 9
REMARK VINA RESULT:    -7.006      3.922      9.652
REMARK INTER + INTRA:          -8.739
REMARK INTER:                  -8.475
REMARK INTRA:                  -0.264
REMARK UNBOUND:                -0.504
REMARK SMILES O=C(Nc1ccc2c(c1)OC(F)(F)O2)Nc1ccc(Cl)c(C(F)(F)F)c1
REMARK SMILES IDX 20 1 16 2 21 3 26 4 17 5 19 6 18 7 22 8 23 9 24 10 25 11
REMARK SMILES IDX 15 12 2 13 1 15 3 16 4 18 9 19 5 20 8 21 6 22 10 23 7 24
REMARK SMILES IDX 11 25 14 26 12 27 13 28
REMARK H PARENT 15 14 3 17
REMARK Flexibility Score: inf
ROOT
ATOM      1  Cl  UNL     1      79.584   1.356   7.867  1.00  0.00    -0.084 Cl
ATOM      2  C   UNL     1      82.929   1.480  10.897  1.00  0.00     0.043 A 
ATOM      3  C   UNL     1      82.126   1.928   8.662  1.00  0.00     0.076 A 
ATOM      4  C   UNL     1      83.152   1.962   9.607  1.00  0.00     0.040 A 
ATOM      5  C   UNL     1      81.680   0.963  11.242  1.00  0.00     0.028 A 
ATOM      6  C   UNL     1      80.878   1.411   9.007  1.00  0.00     0.053 A 
ATOM      7  C   UNL     1      80.654   0.929  10.297  1.00  0.00     0.023 A 
ENDROOT
BRANCH   3   8
ATOM      8  C   UNL     1      82.405   2.457   7.293  1.00  0.00     0.417 C 
ATOM      9  F   UNL     1      81.419   3.283   6.841  1.00  0.00    -0.166 F 
ATOM     10  F   UNL     1      83.558   3.181   7.213  1.00  0.00    -0.166 F 
ATOM     11  F   UNL     1      82.529   1.479   6.348  1.00  0.00    -0.166 F 
ENDBRANCH   3   8
BRANCH   2  12
ATOM     12  N   UNL     1      83.970   1.513  11.854  1.00  0.00    -0.308 N 
ATOM     13  C   UNL     1      85.011   0.588  12.032  1.00  0.00     0.323 C 
ATOM     14  H   UNL     1      83.954   2.309  12.487  1.00  0.00     0.171 HD
ATOM     15  O   UNL     1      85.183  -0.424  11.360  1.00  0.00    -0.248 OA
ATOM     16  N   UNL     1      85.841   0.995  13.105  1.00  0.00    -0.308 N 
ATOM     17  H   UNL     1      85.575   1.858  13.571  1.00  0.00     0.171 HD
BRANCH  16  18
ATOM     18  C   UNL     1      86.981   0.367  13.611  1.00  0.00     0.046 A 
ATOM     19  C   UNL     1      88.142   1.112  13.827  1.00  0.00     0.077 A 
ATOM     20  C   UNL     1      86.947  -1.009  13.899  1.00  0.00     0.030 A 
ATOM     21  C   UNL     1      89.243   0.448  14.329  1.00  0.00     0.174 A 
ATOM     22  C   UNL     1      88.076  -1.656  14.406  1.00  0.00     0.053 A 
ATOM     23  O   UNL     1      90.455   1.006  14.601  1.00  0.00    -0.395 OA
ATOM     24  C   UNL     1      89.211  -0.899  14.611  1.00  0.00     0.172 A 
ATOM     25  C   UNL     1      91.166  -0.144  15.080  1.00  0.00     0.586 C 
ATOM     26  O   UNL     1      90.399  -1.357  15.096  1.00  0.00    -0.395 OA
ATOM     27  F   UNL     1      91.602   0.110  16.340  1.00  0.00    -0.125 F 
ATOM     28  F   UNL     1      92.260  -0.333  14.300  1.00  0.00    -0.125 F 
ENDBRANCH  16  18
ENDBRANCH   2  12
TORSDOF 3
ENDMDL
MODEL 10
REMARK VINA RESULT:    -6.862      2.168      2.745
REMARK INTER + INTRA:          -8.570
REMARK INTER:                  -8.081
REMARK INTRA:                  -0.489
REMARK UNBOUND:                -0.504
REMARK SMILES O=C(Nc1ccc2c(c1)OC(F)(F)O2)Nc1ccc(Cl)c(C(F)(F)F)c1
REMARK SMILES IDX 20 1 16 2 21 3 26 4 17 5 19 6 18 7 22 8 23 9 24 10 25 11
REMARK SMILES IDX 15 12 2 13 1 15 3 16 4 18 9 19 5 20 8 21 6 22 10 23 7 24
REMARK SMILES IDX 11 25 14 26 12 27 13 28
REMARK H PARENT 15 14 3 17
REMARK Flexibility Score: inf
ROOT
ATOM      1  Cl  UNL     1      92.313  -2.598  14.241  1.00  0.00    -0.084 Cl
ATOM      2  C   UNL     1      88.009  -1.375  13.636  1.00  0.00     0.043 A 
ATOM      3  C   UNL     1      90.237  -0.840  14.402  1.00  0.00     0.076 A 
ATOM      4  C   UNL     1      88.905  -0.473  14.209  1.00  0.00     0.040 A 
ATOM      5  C   UNL     1      88.444  -2.645  13.256  1.00  0.00     0.028 A 
ATOM      6  C   UNL     1      90.672  -2.110  14.022  1.00  0.00     0.053 A 
ATOM      7  C   UNL     1      89.776  -3.012  13.449  1.00  0.00     0.023 A 
ENDROOT
BRANCH   3   8
ATOM      8  C   UNL     1      91.166   0.156  15.017  1.00  0.00     0.417 C 
ATOM      9  F   UNL     1      90.578   1.371  15.207  1.00  0.00    -0.166 F 
ATOM     10  F   UNL     1      91.636  -0.222  16.241  1.00  0.00    -0.166 F 
ATOM     11  F   UNL     1      92.279   0.398  14.264  1.00  0.00    -0.166 F 
ENDBRANCH   3   8
BRANCH   2  12
ATOM     12  N   UNL     1      86.658  -1.003  13.443  1.00  0.00    -0.308 N 
ATOM     13  C   UNL     1      86.055  -0.513  12.273  1.00  0.00     0.323 C 
ATOM     14  H   UNL     1      86.056  -1.108  14.256  1.00  0.00     0.171 HD
ATOM     15  O   UNL     1      86.628  -0.328  11.204  1.00  0.00    -0.248 OA
ATOM     16  N   UNL     1      84.680  -0.264  12.505  1.00  0.00    -0.308 N 
ATOM     17  H   UNL     1      84.343  -0.466  13.443  1.00  0.00     0.171 HD
BRANCH  16  18
ATOM     18  C   UNL     1      83.721   0.224  11.616  1.00  0.00     0.046 A 
ATOM     19  C   UNL     1      82.643  -0.584  11.249  1.00  0.00     0.077 A 
ATOM     20  C   UNL     1      83.850   1.525  11.098  1.00  0.00     0.030 A 
ATOM     21  C   UNL     1      81.720  -0.059  10.368  1.00  0.00     0.174 A 
ATOM     22  C   UNL     1      82.901   2.033  10.207  1.00  0.00     0.053 A 
ATOM     23  O   UNL     1      80.611  -0.696   9.900  1.00  0.00    -0.395 OA
ATOM     24  C   UNL     1      81.846   1.215   9.861  1.00  0.00     0.172 A 
ATOM     25  C   UNL     1      80.069   0.323   9.050  1.00  0.00     0.586 C 
ATOM     26  O   UNL     1      80.831   1.538   9.011  1.00  0.00    -0.395 OA
ATOM     27  F   UNL     1      78.812   0.614   9.468  1.00  0.00    -0.125 F 
ATOM     28  F   UNL     1      79.975  -0.170   7.789  1.00  0.00    -0.125 F 
ENDBRANCH  16  18
ENDBRANCH   2  12
TORSDOF 3
ENDMDL
MODEL 11
REMARK VINA RESULT:    -6.809      2.150      2.528
REMARK INTER + INTRA:          -8.508
REMARK INTER:                  -8.142
REMARK INTRA:                  -0.366
REMARK UNBOUND:                -0.504
REMARK SMILES O=C(Nc1ccc2c(c1)OC(F)(F)O2)Nc1ccc(Cl)c(C(F)(F)F)c1
REMARK SMILES IDX 20 1 16 2 21 3 26 4 17 5 19 6 18 7 22 8 23 9 24 10 25 11
REMARK SMILES IDX 15 12 2 13 1 15 3 16 4 18 9 19 5 20 8 21 6 22 10 23 7 24
REMARK SMILES IDX 11 25 14 26 12 27 13 28
REMARK H PARENT 15 14 3 17
REMARK Flexibility Score: inf
ROOT
ATOM      1  Cl  UNL     1      90.028  -3.553  13.459  1.00  0.00    -0.084 Cl
ATOM      2  C   UNL     1      86.605  -0.797  12.429  1.00  0.00     0.043 A 
ATOM      3  C   UNL     1      88.342  -2.315  11.713  1.00  0.00     0.076 A 
ATOM      4  C   UNL     1      87.282  -1.461  11.408  1.00  0.00     0.040 A 
ATOM      5  C   UNL     1      86.987  -0.985  13.757  1.00  0.00     0.028 A 
ATOM      6  C   UNL     1      88.724  -2.503  13.041  1.00  0.00     0.053 A 
ATOM      7  C   UNL     1      88.047  -1.838  14.063  1.00  0.00     0.023 A 
ENDROOT
BRANCH   3   8
ATOM      8  C   UNL     1      89.040  -3.010  10.590  1.00  0.00     0.417 C 
ATOM      9  F   UNL     1      90.361  -2.682  10.513  1.00  0.00    -0.166 F 
ATOM     10  F   UNL     1      89.004  -4.371  10.686  1.00  0.00    -0.166 F 
ATOM     11  F   UNL     1      88.516  -2.723   9.363  1.00  0.00    -0.166 F 
ENDBRANCH   3   8
BRANCH   2  12
ATOM     12  N   UNL     1      85.530   0.070  12.119  1.00  0.00    -0.308 N 
ATOM     13  C   UNL     1      84.440  -0.174  11.268  1.00  0.00     0.323 C 
ATOM     14  H   UNL     1      85.559   0.980  12.573  1.00  0.00     0.171 HD
ATOM     15  O   UNL     1      84.246  -1.212  10.644  1.00  0.00    -0.248 OA
ATOM     16  N   UNL     1      83.589   0.957  11.235  1.00  0.00    -0.308 N 
ATOM     17  H   UNL     1      83.878   1.748  11.805  1.00  0.00     0.171 HD
BRANCH  16  18
ATOM     18  C   UNL     1      82.403   1.135  10.521  1.00  0.00     0.046 A 
ATOM     19  C   UNL     1      81.178   0.885  11.143  1.00  0.00     0.077 A 
ATOM     20  C   UNL     1      82.453   1.563   9.183  1.00  0.00     0.030 A 
ATOM     21  C   UNL     1      80.032   1.075  10.399  1.00  0.00     0.174 A 
ATOM     22  C   UNL     1      81.278   1.746   8.451  1.00  0.00     0.053 A 
ATOM     23  O   UNL     1      78.756   0.883  10.834  1.00  0.00    -0.395 OA
ATOM     24  C   UNL     1      80.081   1.494   9.088  1.00  0.00     0.172 A 
ATOM     25  C   UNL     1      78.025   1.228   9.650  1.00  0.00     0.586 C 
ATOM     26  O   UNL     1      78.841   1.618   8.535  1.00  0.00    -0.395 OA
ATOM     27  F   UNL     1      77.178   2.246   9.944  1.00  0.00    -0.125 F 
ATOM     28  F   UNL     1      77.270   0.162   9.281  1.00  0.00    -0.125 F 
ENDBRANCH  16  18
ENDBRANCH   2  12
TORSDOF 3
ENDMDL
MODEL 12
REMARK VINA RESULT:    -6.781      3.929      9.567
REMARK INTER + INTRA:          -8.475
REMARK INTER:                  -7.960
REMARK INTRA:                  -0.515
REMARK UNBOUND:                -0.504
REMARK SMILES O=C(Nc1ccc2c(c1)OC(F)(F)O2)Nc1ccc(Cl)c(C(F)(F)F)c1
REMARK SMILES IDX 20 1 16 2 21 3 26 4 17 5 19 6 18 7 22 8 23 9 24 10 25 11
REMARK SMILES IDX 15 12 2 13 1 15 3 16 4 18 9 19 5 20 8 21 6 22 10 23 7 24
REMARK SMILES IDX 11 25 14 26 12 27 13 28
REMARK H PARENT 15 14 3 17
REMARK Flexibility Score: inf
ROOT
ATOM      1  Cl  UNL     1      80.260   0.635   8.963  1.00  0.00    -0.084 Cl
ATOM      2  C   UNL     1      83.666  -0.195  11.808  1.00  0.00     0.043 A 
ATOM      3  C   UNL     1      82.114  -0.984  10.134  1.00  0.00     0.076 A 
ATOM      4  C   UNL     1      83.166  -1.228  11.016  1.00  0.00     0.040 A 
ATOM      5  C   UNL     1      83.114   1.083  11.719  1.00  0.00     0.028 A 
ATOM      6  C   UNL     1      81.561   0.294  10.045  1.00  0.00     0.053 A 
ATOM      7  C   UNL     1      82.061   1.327  10.837  1.00  0.00     0.023 A 
ENDROOT
BRANCH   3   8
ATOM      8  C   UNL     1      81.608  -2.116   9.301  1.00  0.00     0.417 C 
ATOM      9  F   UNL     1      81.674  -1.852   7.965  1.00  0.00    -0.166 F 
ATOM     10  F   UNL     1      82.301  -3.277   9.482  1.00  0.00    -0.166 F 
ATOM     11  F   UNL     1      80.304  -2.435   9.550  1.00  0.00    -0.166 F 
ENDBRANCH   3   8
BRANCH   2  12
ATOM     12  N   UNL     1      84.733  -0.443  12.703  1.00  0.00    -0.308 N 
ATOM     13  C   UNL     1      86.092  -0.627  12.400  1.00  0.00     0.323 C 
ATOM     14  H   UNL     1      84.475  -0.492  13.686  1.00  0.00     0.171 HD
ATOM     15  O   UNL     1      86.577  -0.598  11.274  1.00  0.00    -0.248 OA
ATOM     16  N   UNL     1      86.827  -0.850  13.589  1.00  0.00    -0.308 N 
ATOM     17  H   UNL     1      86.290  -0.846  14.453  1.00  0.00     0.171 HD
BRANCH  16  18
ATOM     18  C   UNL     1      88.197  -1.076  13.738  1.00  0.00     0.046 A 
ATOM     19  C   UNL     1      88.746  -2.292  13.322  1.00  0.00     0.077 A 
ATOM     20  C   UNL     1      89.010  -0.079  14.304  1.00  0.00     0.030 A 
ATOM     21  C   UNL     1      90.104  -2.470  13.488  1.00  0.00     0.174 A 
ATOM     22  C   UNL     1      90.382  -0.285  14.462  1.00  0.00     0.053 A 
ATOM     23  O   UNL     1      90.811  -3.582  13.145  1.00  0.00    -0.395 OA
ATOM     24  C   UNL     1      90.901  -1.493  14.043  1.00  0.00     0.172 A 
ATOM     25  C   UNL     1      92.128  -3.185  13.549  1.00  0.00     0.586 C 
ATOM     26  O   UNL     1      92.208  -1.869  14.117  1.00  0.00    -0.395 OA
ATOM     27  F   UNL     1      92.948  -3.241  12.470  1.00  0.00    -0.125 F 
ATOM     28  F   UNL     1      92.590  -4.079  14.459  1.00  0.00    -0.125 F 
ENDBRANCH  16  18
ENDBRANCH   2  12
TORSDOF 3
ENDMDL
MODEL 13
REMARK VINA RESULT:    -6.764      2.451      3.001
REMARK INTER + INTRA:          -8.455
REMARK INTER:                  -7.914
REMARK INTRA:                  -0.541
REMARK UNBOUND:                -0.504
REMARK SMILES O=C(Nc1ccc2c(c1)OC(F)(F)O2)Nc1ccc(Cl)c(C(F)(F)F)c1
REMARK SMILES IDX 20 1 16 2 21 3 26 4 17 5 19 6 18 7 22 8 23 9 24 10 25 11
REMARK SMILES IDX 15 12 2 13 1 15 3 16 4 18 9 19 5 20 8 21 6 22 10 23 7 24
REMARK SMILES IDX 11 25 14 26 12 27 13 28
REMARK H PARENT 15 14 3 17
REMARK Flexibility Score: inf
ROOT
ATOM      1  Cl  UNL     1      91.576  -0.586  15.074  1.00  0.00    -0.084 Cl
ATOM      2  C   UNL     1      87.203  -0.391  13.967  1.00  0.00     0.043 A 
ATOM      3  C   UNL     1      89.253   0.742  14.559  1.00  0.00     0.076 A 
ATOM      4  C   UNL     1      87.901   0.790  14.216  1.00  0.00     0.040 A 
ATOM      5  C   UNL     1      87.855  -1.621  14.063  1.00  0.00     0.028 A 
ATOM      6  C   UNL     1      89.905  -0.487  14.655  1.00  0.00     0.053 A 
ATOM      7  C   UNL     1      89.207  -1.668  14.406  1.00  0.00     0.023 A 
ENDROOT
BRANCH   3   8
ATOM      8  C   UNL     1      89.966   2.030  14.815  1.00  0.00     0.417 C 
ATOM      9  F   UNL     1      90.603   2.044  16.020  1.00  0.00    -0.166 F 
ATOM     10  F   UNL     1      90.925   2.315  13.888  1.00  0.00    -0.166 F 
ATOM     11  F   UNL     1      89.140   3.117  14.823  1.00  0.00    -0.166 F 
ENDBRANCH   3   8
BRANCH   2  12
ATOM     12  N   UNL     1      85.832  -0.343  13.621  1.00  0.00    -0.308 N 
ATOM     13  C   UNL     1      85.269  -0.178  12.345  1.00  0.00     0.323 C 
ATOM     14  H   UNL     1      85.183  -0.441  14.397  1.00  0.00     0.171 HD
ATOM     15  O   UNL     1      85.901  -0.049  11.302  1.00  0.00    -0.248 OA
ATOM     16  N   UNL     1      83.856  -0.187  12.436  1.00  0.00    -0.308 N 
ATOM     17  H   UNL     1      83.470  -0.304  13.370  1.00  0.00     0.171 HD
BRANCH  16  18
ATOM     18  C   UNL     1      82.916  -0.054  11.413  1.00  0.00     0.046 A 
ATOM     19  C   UNL     1      82.638  -1.143  10.583  1.00  0.00     0.077 A 
ATOM     20  C   UNL     1      82.259   1.175  11.226  1.00  0.00     0.030 A 
ATOM     21  C   UNL     1      81.701  -0.965   9.586  1.00  0.00     0.174 A 
ATOM     22  C   UNL     1      81.315   1.329  10.208  1.00  0.00     0.053 A 
ATOM     23  O   UNL     1      81.304  -1.907   8.687  1.00  0.00    -0.395 OA
ATOM     24  C   UNL     1      81.057   0.239   9.403  1.00  0.00     0.172 A 
ATOM     25  C   UNL     1      80.346  -1.154   7.931  1.00  0.00     0.586 C 
ATOM     26  O   UNL     1      80.174   0.203   8.366  1.00  0.00    -0.395 OA
ATOM     27  F   UNL     1      79.147  -1.785   7.997  1.00  0.00    -0.125 F 
ATOM     28  F   UNL     1      80.732  -1.145   6.630  1.00  0.00    -0.125 F 
ENDBRANCH  16  18
ENDBRANCH   2  12
TORSDOF 3
ENDMDL
MODEL 14
REMARK VINA RESULT:    -6.764      2.053      2.584
REMARK INTER + INTRA:          -8.455
REMARK INTER:                  -8.344
REMARK INTRA:                  -0.111
REMARK UNBOUND:                -0.504
REMARK SMILES O=C(Nc1ccc2c(c1)OC(F)(F)O2)Nc1ccc(Cl)c(C(F)(F)F)c1
REMARK SMILES IDX 20 1 16 2 21 3 26 4 17 5 19 6 18 7 22 8 23 9 24 10 25 11
REMARK SMILES IDX 15 12 2 13 1 15 3 16 4 18 9 19 5 20 8 21 6 22 10 23 7 24
REMARK SMILES IDX 11 25 14 26 12 27 13 28
REMARK H PARENT 15 14 3 17
REMARK Flexibility Score: inf
ROOT
ATOM      1  Cl  UNL     1      91.249  -0.551  15.289  1.00  0.00    -0.084 Cl
ATOM      2  C   UNL     1      87.350   1.083  13.705  1.00  0.00     0.043 A 
ATOM      3  C   UNL     1      89.553   1.473  14.617  1.00  0.00     0.076 A 
ATOM      4  C   UNL     1      88.344   1.966  14.125  1.00  0.00     0.040 A 
ATOM      5  C   UNL     1      87.563  -0.293  13.778  1.00  0.00     0.028 A 
ATOM      6  C   UNL     1      89.766   0.096  14.690  1.00  0.00     0.053 A 
ATOM      7  C   UNL     1      88.772  -0.786  14.270  1.00  0.00     0.023 A 
ENDROOT
BRANCH   3   8
ATOM      8  C   UNL     1      90.594   2.452  15.055  1.00  0.00     0.417 C 
ATOM      9  F   UNL     1      91.628   2.544  14.171  1.00  0.00    -0.166 F 
ATOM     10  F   UNL     1      90.119   3.723  15.201  1.00  0.00    -0.166 F 
ATOM     11  F   UNL     1      91.162   2.140  16.256  1.00  0.00    -0.166 F 
ENDBRANCH   3   8
BRANCH   2  12
ATOM     12  N   UNL     1      86.124   1.584  13.207  1.00  0.00    -0.308 N 
ATOM     13  C   UNL     1      85.306   1.031  12.208  1.00  0.00     0.323 C 
ATOM     14  H   UNL     1      85.803   2.451  13.631  1.00  0.00     0.171 HD
ATOM     15  O   UNL     1      85.538  -0.006  11.595  1.00  0.00    -0.248 OA
ATOM     16  N   UNL     1      84.166   1.847  12.010  1.00  0.00    -0.308 N 
ATOM     17  H   UNL     1      84.107   2.679  12.592  1.00  0.00     0.171 HD
BRANCH  16  18
ATOM     18  C   UNL     1      83.108   1.664  11.118  1.00  0.00     0.046 A 
ATOM     19  C   UNL     1      81.887   1.173  11.586  1.00  0.00     0.077 A 
ATOM     20  C   UNL     1      83.282   1.975   9.758  1.00  0.00     0.030 A 
ATOM     21  C   UNL     1      80.869   1.009  10.668  1.00  0.00     0.174 A 
ATOM     22  C   UNL     1      82.235   1.799   8.849  1.00  0.00     0.053 A 
ATOM     23  O   UNL     1      79.618   0.545  10.938  1.00  0.00    -0.395 OA
ATOM     24  C   UNL     1      81.039   1.314   9.336  1.00  0.00     0.172 A 
ATOM     25  C   UNL     1      79.036   0.596   9.629  1.00  0.00     0.586 C 
ATOM     26  O   UNL     1      79.915   1.080   8.602  1.00  0.00    -0.395 OA
ATOM     27  F   UNL     1      77.941   1.395   9.671  1.00  0.00    -0.125 F 
ATOM     28  F   UNL     1      78.620  -0.650   9.291  1.00  0.00    -0.125 F 
ENDBRANCH  16  18
ENDBRANCH   2  12
TORSDOF 3
ENDMDL
MODEL 15
REMARK VINA RESULT:    -6.685      5.536      6.235
REMARK INTER + INTRA:          -8.361
REMARK INTER:                  -7.857
REMARK INTRA:                  -0.504
REMARK UNBOUND:                -0.504
REMARK SMILES O=C(Nc1ccc2c(c1)OC(F)(F)O2)Nc1ccc(Cl)c(C(F)(F)F)c1
REMARK SMILES IDX 20 1 16 2 21 3 26 4 17 5 19 6 18 7 22 8 23 9 24 10 25 11
REMARK SMILES IDX 15 12 2 13 1 15 3 16 4 18 9 19 5 20 8 21 6 22 10 23 7 24
REMARK SMILES IDX 11 25 14 26 12 27 13 28
REMARK H PARENT 15 14 3 17
REMARK Flexibility Score: inf
ROOT
ATOM      1  Cl  UNL     1      90.830  -1.347  14.277  1.00  0.00    -0.084 Cl
ATOM      2  C   UNL     1      88.432   2.473  14.491  1.00  0.00     0.043 A 
ATOM      3  C   UNL     1      88.498   0.063  14.348  1.00  0.00     0.076 A 
ATOM      4  C   UNL     1      87.768   1.250  14.415  1.00  0.00     0.040 A 
ATOM      5  C   UNL     1      89.827   2.511  14.499  1.00  0.00     0.028 A 
ATOM      6  C   UNL     1      89.892   0.101  14.355  1.00  0.00     0.053 A 
ATOM      7  C   UNL     1      90.557   1.324  14.431  1.00  0.00     0.023 A 
ENDROOT
BRANCH   3   8
ATOM      8  C   UNL     1      87.749  -1.228  14.270  1.00  0.00     0.417 C 
ATOM      9  F   UNL     1      88.046  -1.937  13.144  1.00  0.00    -0.166 F 
ATOM     10  F   UNL     1      88.005  -2.069  15.313  1.00  0.00    -0.166 F 
ATOM     11  F   UNL     1      86.394  -1.070  14.259  1.00  0.00    -0.166 F 
ENDBRANCH   3   8
BRANCH   2  12
ATOM     12  N   UNL     1      87.692   3.677  14.558  1.00  0.00    -0.308 N 
ATOM     13  C   UNL     1      87.368   4.553  13.508  1.00  0.00     0.323 C 
ATOM     14  H   UNL     1      87.357   3.932  15.483  1.00  0.00     0.171 HD
ATOM     15  O   UNL     1      87.688   4.400  12.334  1.00  0.00    -0.248 OA
ATOM     16  N   UNL     1      86.612   5.642  14.004  1.00  0.00    -0.308 N 
ATOM     17  H   UNL     1      86.422   5.635  15.003  1.00  0.00     0.171 HD
BRANCH  16  18
ATOM     18  C   UNL     1      86.090   6.731  13.303  1.00  0.00     0.046 A 
ATOM     19  C   UNL     1      84.706   6.882  13.190  1.00  0.00     0.077 A 
ATOM     20  C   UNL     1      86.963   7.665  12.718  1.00  0.00     0.030 A 
ATOM     21  C   UNL     1      84.236   7.973  12.489  1.00  0.00     0.174 A 
ATOM     22  C   UNL     1      86.461   8.761  12.012  1.00  0.00     0.053 A 
ATOM     23  O   UNL     1      82.928   8.282  12.276  1.00  0.00    -0.395 OA
ATOM     24  C   UNL     1      85.091   8.888  11.915  1.00  0.00     0.172 A 
ATOM     25  C   UNL     1      83.069   9.485  11.508  1.00  0.00     0.586 C 
ATOM     26  O   UNL     1      84.426   9.887  11.270  1.00  0.00    -0.395 OA
ATOM     27  F   UNL     1      82.427  10.490  12.155  1.00  0.00    -0.125 F 
ATOM     28  F   UNL     1      82.452   9.311  10.312  1.00  0.00    -0.125 F 
ENDBRANCH  16  18
ENDBRANCH   2  12
TORSDOF 3
ENDMDL
MODEL 16
REMARK VINA RESULT:    -6.672      2.417      3.349
REMARK INTER + INTRA:          -8.346
REMARK INTER:                  -7.901
REMARK INTRA:                  -0.445
REMARK UNBOUND:                -0.504
REMARK SMILES O=C(Nc1ccc2c(c1)OC(F)(F)O2)Nc1ccc(Cl)c(C(F)(F)F)c1
REMARK SMILES IDX 20 1 16 2 21 3 26 4 17 5 19 6 18 7 22 8 23 9 24 10 25 11
REMARK SMILES IDX 15 12 2 13 1 15 3 16 4 18 9 19 5 20 8 21 6 22 10 23 7 24
REMARK SMILES IDX 11 25 14 26 12 27 13 28
REMARK H PARENT 15 14 3 17
REMARK Flexibility Score: inf
ROOT
ATOM      1  Cl  UNL     1      94.315  -1.092  14.758  1.00  0.00    -0.084 Cl
ATOM      2  C   UNL     1      89.872  -0.370  14.409  1.00  0.00     0.043 A 
ATOM      3  C   UNL     1      91.789  -1.783  14.004  1.00  0.00     0.076 A 
ATOM      4  C   UNL     1      90.417  -1.549  13.903  1.00  0.00     0.040 A 
ATOM      5  C   UNL     1      90.698   0.577  15.015  1.00  0.00     0.028 A 
ATOM      6  C   UNL     1      92.614  -0.837  14.611  1.00  0.00     0.053 A 
ATOM      7  C   UNL     1      92.069   0.343  15.117  1.00  0.00     0.023 A 
ENDROOT
BRANCH   3   8
ATOM      8  C   UNL     1      92.334  -3.060  13.452  1.00  0.00     0.417 C 
ATOM      9  F   UNL     1      93.272  -2.853  12.485  1.00  0.00    -0.166 F 
ATOM     10  F   UNL     1      92.940  -3.844  14.391  1.00  0.00    -0.166 F 
ATOM     11  F   UNL     1      91.384  -3.855  12.880  1.00  0.00    -0.166 F 
ENDBRANCH   3   8
BRANCH   2  12
ATOM     12  N   UNL     1      88.481  -0.132  14.305  1.00  0.00    -0.308 N 
ATOM     13  C   UNL     1      87.753   0.255  13.168  1.00  0.00     0.323 C 
ATOM     14  H   UNL     1      87.952  -0.260  15.163  1.00  0.00     0.171 HD
ATOM     15  O   UNL     1      88.228   0.450  12.054  1.00  0.00    -0.248 OA
ATOM     16  N   UNL     1      86.381   0.385  13.494  1.00  0.00    -0.308 N 
ATOM     17  H   UNL     1      86.132   0.189  14.460  1.00  0.00     0.171 HD
BRANCH  16  18
ATOM     18  C   UNL     1      85.319   0.747  12.664  1.00  0.00     0.046 A 
ATOM     19  C   UNL     1      84.254  -0.137  12.477  1.00  0.00     0.077 A 
ATOM     20  C   UNL     1      85.331   1.999  12.024  1.00  0.00     0.030 A 
ATOM     21  C   UNL     1      83.226   0.264  11.648  1.00  0.00     0.174 A 
ATOM     22  C   UNL     1      84.278   2.381  11.189  1.00  0.00     0.053 A 
ATOM     23  O   UNL     1      82.113  -0.460  11.349  1.00  0.00    -0.395 OA
ATOM     24  C   UNL     1      83.238   1.491  11.021  1.00  0.00     0.172 A 
ATOM     25  C   UNL     1      81.441   0.452  10.469  1.00  0.00     0.586 C 
ATOM     26  O   UNL     1      82.133   1.690  10.250  1.00  0.00    -0.395 OA
ATOM     27  F   UNL     1      80.216   0.726  10.982  1.00  0.00    -0.125 F 
ATOM     28  F   UNL     1      81.255  -0.158   9.272  1.00  0.00    -0.125 F 
ENDBRANCH  16  18
ENDBRANCH   2  12
TORSDOF 3
ENDMDL
MODEL 17
REMARK VINA RESULT:    -6.671      1.745      2.188
REMARK INTER + INTRA:          -8.346
REMARK INTER:                  -7.852
REMARK INTRA:                  -0.494
REMARK UNBOUND:                -0.504
REMARK SMILES O=C(Nc1ccc2c(c1)OC(F)(F)O2)Nc1ccc(Cl)c(C(F)(F)F)c1
REMARK SMILES IDX 20 1 16 2 21 3 26 4 17 5 19 6 18 7 22 8 23 9 24 10 25 11
REMARK SMILES IDX 15 12 2 13 1 15 3 16 4 18 9 19 5 20 8 21 6 22 10 23 7 24
REMARK SMILES IDX 11 25 14 26 12 27 13 28
REMARK H PARENT 15 14 3 17
REMARK Flexibility Score: inf
ROOT
ATOM      1  Cl  UNL     1      91.478  -0.595  14.721  1.00  0.00    -0.084 Cl
ATOM      2  C   UNL     1      87.076  -0.462  13.727  1.00  0.00     0.043 A 
ATOM      3  C   UNL     1      89.221  -1.556  13.534  1.00  0.00     0.076 A 
ATOM      4  C   UNL     1      87.859  -1.505  13.234  1.00  0.00     0.040 A 
ATOM      5  C   UNL     1      87.653   0.531  14.520  1.00  0.00     0.028 A 
ATOM      6  C   UNL     1      89.798  -0.563  14.326  1.00  0.00     0.053 A 
ATOM      7  C   UNL     1      89.014   0.479  14.819  1.00  0.00     0.023 A 
ENDROOT
BRANCH   3   8
ATOM      8  C   UNL     1      90.026  -2.690  12.989  1.00  0.00     0.417 C 
ATOM      9  F   UNL     1      91.006  -2.274  12.138  1.00  0.00    -0.166 F 
ATOM     10  F   UNL     1      90.659  -3.421  13.952  1.00  0.00    -0.166 F 
ATOM     11  F   UNL     1      89.284  -3.593  12.283  1.00  0.00    -0.166 F 
ENDBRANCH   3   8
BRANCH   2  12
ATOM     12  N   UNL     1      85.695  -0.409  13.422  1.00  0.00    -0.308 N 
ATOM     13  C   UNL     1      85.093  -0.254  12.163  1.00  0.00     0.323 C 
ATOM     14  H   UNL     1      85.069  -0.495  14.219  1.00  0.00     0.171 HD
ATOM     15  O   UNL     1      85.693  -0.139  11.099  1.00  0.00    -0.248 OA
ATOM     16  N   UNL     1      83.683  -0.253  12.298  1.00  0.00    -0.308 N 
ATOM     17  H   UNL     1      83.326  -0.359  13.244  1.00  0.00     0.171 HD
BRANCH  16  18
ATOM     18  C   UNL     1      82.713  -0.126  11.302  1.00  0.00     0.046 A 
ATOM     19  C   UNL     1      82.357  -1.238  10.536  1.00  0.00     0.077 A 
ATOM     20  C   UNL     1      82.104   1.122  11.080  1.00  0.00     0.030 A 
ATOM     21  C   UNL     1      81.393  -1.064   9.565  1.00  0.00     0.174 A 
ATOM     22  C   UNL     1      81.131   1.271  10.089  1.00  0.00     0.053 A 
ATOM     23  O   UNL     1      80.922  -2.028   8.726  1.00  0.00    -0.395 OA
ATOM     24  C   UNL     1      80.796   0.158   9.347  1.00  0.00     0.172 A 
ATOM     25  C   UNL     1      79.971  -1.268   7.968  1.00  0.00     0.586 C 
ATOM     26  O   UNL     1      79.874   0.114   8.344  1.00  0.00    -0.395 OA
ATOM     27  F   UNL     1      78.749  -1.841   8.106  1.00  0.00    -0.125 F 
ATOM     28  F   UNL     1      80.309  -1.337   6.656  1.00  0.00    -0.125 F 
ENDBRANCH  16  18
ENDBRANCH   2  12
TORSDOF 3
ENDMDL
MODEL 18
REMARK VINA RESULT:    -6.663      8.614      9.313
REMARK INTER + INTRA:          -8.336
REMARK INTER:                  -7.940
REMARK INTRA:                  -0.396
REMARK UNBOUND:                -0.504
REMARK SMILES O=C(Nc1ccc2c(c1)OC(F)(F)O2)Nc1ccc(Cl)c(C(F)(F)F)c1
REMARK SMILES IDX 20 1 16 2 21 3 26 4 17 5 19 6 18 7 22 8 23 9 24 10 25 11
REMARK SMILES IDX 15 12 2 13 1 15 3 16 4 18 9 19 5 20 8 21 6 22 10 23 7 24
REMARK SMILES IDX 11 25 14 26 12 27 13 28
REMARK H PARENT 15 14 3 17
REMARK Flexibility Score: inf
ROOT
ATOM      1  Cl  UNL     1      87.535   1.391  10.294  1.00  0.00    -0.084 Cl
ATOM      2  C   UNL     1      85.869   5.263  11.911  1.00  0.00     0.043 A 
ATOM      3  C   UNL     1      87.105   4.080  10.205  1.00  0.00     0.076 A 
ATOM      4  C   UNL     1      86.584   5.270  10.714  1.00  0.00     0.040 A 
ATOM      5  C   UNL     1      85.674   4.066  12.600  1.00  0.00     0.028 A 
ATOM      6  C   UNL     1      86.910   2.883  10.894  1.00  0.00     0.053 A 
ATOM      7  C   UNL     1      86.195   2.876  12.091  1.00  0.00     0.023 A 
ENDROOT
BRANCH   3   8
ATOM      8  C   UNL     1      87.863   4.129   8.918  1.00  0.00     0.417 C 
ATOM      9  F   UNL     1      89.115   3.602   9.029  1.00  0.00    -0.166 F 
ATOM     10  F   UNL     1      87.262   3.441   7.905  1.00  0.00    -0.166 F 
ATOM     11  F   UNL     1      88.037   5.395   8.438  1.00  0.00    -0.166 F 
ENDBRANCH   3   8
BRANCH   2  12
ATOM     12  N   UNL     1      85.343   6.470  12.427  1.00  0.00    -0.308 N 
ATOM     13  C   UNL     1      84.539   7.415  11.769  1.00  0.00     0.323 C 
ATOM     14  H   UNL     1      85.580   6.670  13.396  1.00  0.00     0.171 HD
ATOM     15  O   UNL     1      84.157   7.333  10.606  1.00  0.00    -0.248 OA
ATOM     16  N   UNL     1      84.229   8.482  12.647  1.00  0.00    -0.308 N 
ATOM     17  H   UNL     1      84.615   8.414  13.585  1.00  0.00     0.171 HD
BRANCH  16  18
ATOM     18  C   UNL     1      83.460   9.620  12.397  1.00  0.00     0.046 A 
ATOM     19  C   UNL     1      84.080  10.788  11.948  1.00  0.00     0.077 A 
ATOM     20  C   UNL     1      82.070   9.579  12.602  1.00  0.00     0.030 A 
ATOM     21  C   UNL     1      83.280  11.888  11.714  1.00  0.00     0.174 A 
ATOM     22  C   UNL     1      81.282  10.707  12.358  1.00  0.00     0.053 A 
ATOM     23  O   UNL     1      83.704  13.105  11.276  1.00  0.00    -0.395 OA
ATOM     24  C   UNL     1      81.917  11.848  11.914  1.00  0.00     0.172 A 
ATOM     25  C   UNL     1      82.457  13.811  11.229  1.00  0.00     0.586 C 
ATOM     26  O   UNL     1      81.316  13.036  11.626  1.00  0.00    -0.395 OA
ATOM     27  F   UNL     1      82.258  14.256   9.963  1.00  0.00    -0.125 F 
ATOM     28  F   UNL     1      82.544  14.899  12.036  1.00  0.00    -0.125 F 
ENDBRANCH  16  18
ENDBRANCH   2  12
TORSDOF 3
ENDMDL
MODEL 19
REMARK VINA RESULT:    -6.633      8.451      9.147
REMARK INTER + INTRA:          -8.301
REMARK INTER:                  -7.782
REMARK INTRA:                  -0.519
REMARK UNBOUND:                -0.504
REMARK SMILES O=C(Nc1ccc2c(c1)OC(F)(F)O2)Nc1ccc(Cl)c(C(F)(F)F)c1
REMARK SMILES IDX 20 1 16 2 21 3 26 4 17 5 19 6 18 7 22 8 23 9 24 10 25 11
REMARK SMILES IDX 15 12 2 13 1 15 3 16 4 18 9 19 5 20 8 21 6 22 10 23 7 24
REMARK SMILES IDX 11 25 14 26 12 27 13 28
REMARK H PARENT 15 14 3 17
REMARK Flexibility Score: inf
ROOT
ATOM      1  Cl  UNL     1      87.993   2.022   9.427  1.00  0.00    -0.084 Cl
ATOM      2  C   UNL     1      86.218   5.665  11.416  1.00  0.00     0.043 A 
ATOM      3  C   UNL     1      86.057   3.326  10.833  1.00  0.00     0.076 A 
ATOM      4  C   UNL     1      85.519   4.458  11.445  1.00  0.00     0.040 A 
ATOM      5  C   UNL     1      87.454   5.740  10.775  1.00  0.00     0.028 A 
ATOM      6  C   UNL     1      87.293   3.402  10.192  1.00  0.00     0.053 A 
ATOM      7  C   UNL     1      87.992   4.608  10.163  1.00  0.00     0.023 A 
ENDROOT
BRANCH   3   8
ATOM      8  C   UNL     1      85.279   2.052  10.889  1.00  0.00     0.417 C 
ATOM      9  F   UNL     1      85.928   1.073  11.583  1.00  0.00    -0.166 F 
ATOM     10  F   UNL     1      84.061   2.183  11.490  1.00  0.00    -0.166 F 
ATOM     11  F   UNL     1      85.018   1.520   9.659  1.00  0.00    -0.166 F 
ENDBRANCH   3   8
BRANCH   2  12
ATOM     12  N   UNL     1      85.671   6.814  12.036  1.00  0.00    -0.308 N 
ATOM     13  C   UNL     1      84.673   7.670  11.542  1.00  0.00     0.323 C 
ATOM     14  H   UNL     1      86.053   7.039  12.950  1.00  0.00     0.171 HD
ATOM     15  O   UNL     1      84.103   7.547  10.463  1.00  0.00    -0.248 OA
ATOM     16  N   UNL     1      84.416   8.702  12.477  1.00  0.00    -0.308 N 
ATOM     17  H   UNL     1      84.966   8.676  13.332  1.00  0.00     0.171 HD
BRANCH  16  18
ATOM     18  C   UNL     1      83.505   9.755  12.384  1.00  0.00     0.046 A 
ATOM     19  C   UNL     1      83.972  11.060  12.213  1.00  0.00     0.077 A 
ATOM     20  C   UNL     1      82.126   9.492  12.463  1.00  0.00     0.030 A 
ATOM     21  C   UNL     1      83.034  12.069  12.125  1.00  0.00     0.174 A 
ATOM     22  C   UNL     1      81.197  10.532  12.372  1.00  0.00     0.053 A 
ATOM     23  O   UNL     1      83.300  13.394  11.959  1.00  0.00    -0.395 OA
ATOM     24  C   UNL     1      81.683  11.811  12.203  1.00  0.00     0.172 A 
ATOM     25  C   UNL     1      81.968  13.924  11.944  1.00  0.00     0.586 C 
ATOM     26  O   UNL     1      80.932  12.943  12.094  1.00  0.00    -0.395 OA
ATOM     27  F   UNL     1      81.776  14.580  10.772  1.00  0.00    -0.125 F 
ATOM     28  F   UNL     1      81.852  14.834  12.944  1.00  0.00    -0.125 F 
ENDBRANCH  16  18
ENDBRANCH   2  12
TORSDOF 3
ENDMDL
MODEL 20
REMARK VINA RESULT:    -6.621      4.771      6.693
REMARK INTER + INTRA:          -8.287
REMARK INTER:                  -7.820
REMARK INTRA:                  -0.467
REMARK UNBOUND:                -0.504
REMARK SMILES O=C(Nc1ccc2c(c1)OC(F)(F)O2)Nc1ccc(Cl)c(C(F)(F)F)c1
REMARK SMILES IDX 20 1 16 2 21 3 26 4 17 5 19 6 18 7 22 8 23 9 24 10 25 11
REMARK SMILES IDX 15 12 2 13 1 15 3 16 4 18 9 19 5 20 8 21 6 22 10 23 7 24
REMARK SMILES IDX 11 25 14 26 12 27 13 28
REMARK H PARENT 15 14 3 17
REMARK Flexibility Score: inf
ROOT
ATOM      1  Cl  UNL     1      86.247   3.806   9.372  1.00  0.00    -0.084 Cl
ATOM      2  C   UNL     1      82.379   1.479   9.464  1.00  0.00     0.043 A 
ATOM      3  C   UNL     1      84.375   2.244  10.590  1.00  0.00     0.076 A 
ATOM      4  C   UNL     1      83.177   1.529  10.607  1.00  0.00     0.040 A 
ATOM      5  C   UNL     1      82.779   2.142   8.304  1.00  0.00     0.028 A 
ATOM      6  C   UNL     1      84.774   2.908   9.430  1.00  0.00     0.053 A 
ATOM      7  C   UNL     1      83.976   2.857   8.287  1.00  0.00     0.023 A 
ENDROOT
BRANCH   3   8
ATOM      8  C   UNL     1      85.200   2.277  11.835  1.00  0.00     0.417 C 
ATOM      9  F   UNL     1      84.810   1.339  12.745  1.00  0.00    -0.166 F 
ATOM     10  F   UNL     1      86.527   2.046  11.615  1.00  0.00    -0.166 F 
ATOM     11  F   UNL     1      85.147   3.472  12.492  1.00  0.00    -0.166 F 
ENDBRANCH   3   8
BRANCH   2  12
ATOM     12  N   UNL     1      81.165   0.752   9.481  1.00  0.00    -0.308 N 
ATOM     13  C   UNL     1      80.907  -0.512   8.927  1.00  0.00     0.323 C 
ATOM     14  H   UNL     1      80.391   1.209   9.955  1.00  0.00     0.171 HD
ATOM     15  O   UNL     1      81.722  -1.203   8.324  1.00  0.00    -0.248 OA
ATOM     16  N   UNL     1      79.560  -0.879   9.167  1.00  0.00    -0.308 N 
ATOM     17  H   UNL     1      79.000  -0.204   9.682  1.00  0.00     0.171 HD
BRANCH  16  18
ATOM     18  C   UNL     1      78.895  -2.047   8.790  1.00  0.00     0.046 A 
ATOM     19  C   UNL     1      79.135  -3.235   9.484  1.00  0.00     0.077 A 
ATOM     20  C   UNL     1      77.989  -2.016   7.714  1.00  0.00     0.030 A 
ATOM     21  C   UNL     1      78.454  -4.363   9.076  1.00  0.00     0.174 A 
ATOM     22  C   UNL     1      77.313  -3.173   7.321  1.00  0.00     0.053 A 
ATOM     23  O   UNL     1      78.560  -5.603   9.629  1.00  0.00    -0.395 OA
ATOM     24  C   UNL     1      77.567  -4.333   8.023  1.00  0.00     0.172 A 
ATOM     25  C   UNL     1      77.643  -6.333   8.803  1.00  0.00     0.586 C 
ATOM     26  O   UNL     1      77.004  -5.550   7.783  1.00  0.00    -0.395 OA
ATOM     27  F   UNL     1      76.685  -6.877   9.594  1.00  0.00    -0.125 F 
ATOM     28  F   UNL     1      78.312  -7.353   8.210  1.00  0.00    -0.125 F 
ENDBRANCH  16  18
ENDBRANCH   2  12
TORSDOF 3
ENDMDL
