REMARK SMILES O=C1C=CC[C@]2(O)[C]([O-])OC[C@@]12CCC1=CC=C(c2ccoc2)O[C]1[O-]
REMARK SMILES IDX 14 1 13 2 12 3 10 4 11 5 8 6 9 7 6 8 2 9 7 10 5 11 1 12 3 13
REMARK SMILES IDX 4 14 15 15 16 16 25 17 17 18 24 19 26 20 18 21 19 22 20 23
REMARK SMILES IDX 23 24 21 25 22 26
REMARK H PARENT
REMARK Flexibility Score: inf
ROOT
ATOM      1  C   UNL     1       3.873  -5.558   0.666  1.00  0.00    -0.028 C 
ENDROOT
BRANCH   1   2
ATOM      2  C   UNL     1       2.605  -4.968   1.260  1.00  0.00    -0.031 C 
BRANCH   2   3
ATOM      3  C   UNL     1       2.685  -3.424   1.286  1.00  0.00     0.087 C 
ATOM      4  O   UNL     1       0.628  -2.834   0.354  1.00  0.00    -0.386 OA
ATOM      5  C   UNL     1       2.039  -2.887   0.021  1.00  0.00     0.062 C 
ATOM      6  C   UNL     1       0.458  -2.860   1.724  1.00  0.00     0.042 C 
ATOM      7  O   UNL     1      -0.617  -2.905   2.298  1.00  0.00    -0.825 OA
ATOM      8  C   UNL     1       1.814  -2.758   2.354  1.00  0.00     0.099 C 
ATOM      9  C   UNL     1       4.119  -3.032   1.597  1.00  0.00     0.166 C 
ATOM     10  O   UNL     1       1.993  -1.334   2.444  1.00  0.00    -0.387 OA
ATOM     11  C   UNL     1       2.088  -3.322   3.736  1.00  0.00    -0.003 C 
ATOM     12  O   UNL     1       4.936  -2.718   0.737  1.00  0.00    -0.294 OA
ATOM     13  C   UNL     1       4.522  -3.125   3.039  1.00  0.00    -0.022 C 
ATOM     14  C   UNL     1       3.585  -3.301   3.989  1.00  0.00    -0.078 C 
ENDBRANCH   2   3
ENDBRANCH   1   2
BRANCH   1  15
ATOM     15  C   UNL     1       4.335  -6.740   1.459  1.00  0.00    -0.040 C 
ATOM     16  C   UNL     1       4.974  -6.629   2.631  1.00  0.00    -0.057 C 
ATOM     17  C   UNL     1       4.063  -8.092   0.902  1.00  0.00     0.091 C 
ATOM     18  C   UNL     1       5.404  -7.782   3.366  1.00  0.00    -0.019 C 
ATOM     19  O   UNL     1       4.491  -9.167   1.635  1.00  0.00    -0.496 OA
ATOM     20  O   UNL     1       3.478  -8.239  -0.166  1.00  0.00    -0.813 OA
ATOM     21  C   UNL     1       5.168  -9.003   2.869  1.00  0.00     0.129 C 
BRANCH  21  22
ATOM     22  C   UNL     1       5.555 -10.260   3.537  1.00  0.00     0.055 A 
ATOM     23  C   UNL     1       6.857 -10.748   3.797  1.00  0.00    -0.013 A 
ATOM     24  C   UNL     1       4.686 -11.202   4.035  1.00  0.00     0.101 A 
ATOM     25  C   UNL     1       6.691 -11.955   4.437  1.00  0.00     0.091 A 
ATOM     26  O   UNL     1       5.371 -12.240   4.586  1.00  0.00    -0.472 OA
ENDBRANCH  21  22
ENDBRANCH   1  15
TORSDOF 4
