MODEL 1
REMARK VINA RESULT:    -7.700      0.000      0.000
REMARK INTER + INTRA:         -10.349
REMARK INTER:                  -9.442
REMARK INTRA:                  -0.907
REMARK UNBOUND:                -0.848
REMARK SMILES O=C1C=CC[C@]2(O)[C]([O-])OC[C@@]12CCC1=CC=C(c2ccoc2)O[C]1[O-]
REMARK SMILES IDX 14 1 13 2 12 3 10 4 11 5 8 6 9 7 6 8 2 9 7 10 5 11 1 12 3 13
REMARK SMILES IDX 4 14 15 15 16 16 25 17 17 18 24 19 26 20 18 21 19 22 20 23
REMARK SMILES IDX 23 24 21 25 22 26
REMARK H PARENT
REMARK Flexibility Score: inf
ROOT
ATOM      1  C   UNL     1       5.179  -6.951   3.156  1.00  0.00    -0.028 C 
ENDROOT
BRANCH   1   2
ATOM      2  C   UNL     1       5.601  -7.235   4.587  1.00  0.00    -0.031 C 
BRANCH   2   3
ATOM      3  C   UNL     1       6.909  -8.061   4.613  1.00  0.00     0.087 C 
ATOM      4  O   UNL     1       8.522  -6.386   4.420  1.00  0.00    -0.386 OA
ATOM      5  C   UNL     1       7.893  -7.435   3.641  1.00  0.00     0.062 C 
ATOM      6  C   UNL     1       8.338  -6.614   5.769  1.00  0.00     0.042 C 
ATOM      7  O   UNL     1       8.687  -5.862   6.663  1.00  0.00    -0.825 OA
ATOM      8  C   UNL     1       7.700  -7.962   5.920  1.00  0.00     0.099 C 
ATOM      9  C   UNL     1       6.545  -9.526   4.443  1.00  0.00     0.166 C 
ATOM     10  O   UNL     1       8.847  -8.828   5.971  1.00  0.00    -0.387 OA
ATOM     11  C   UNL     1       6.841  -8.299   7.125  1.00  0.00    -0.003 C 
ATOM     12  O   UNL     1       6.598 -10.115   3.368  1.00  0.00    -0.294 OA
ATOM     13  C   UNL     1       6.028 -10.215   5.672  1.00  0.00    -0.022 C 
ATOM     14  C   UNL     1       6.135  -9.619   6.872  1.00  0.00    -0.078 C 
ENDBRANCH   2   3
ENDBRANCH   1   2
BRANCH   1  15
ATOM     15  C   UNL     1       4.770  -5.521   2.993  1.00  0.00    -0.040 C 
ATOM     16  C   UNL     1       4.969  -4.592   3.938  1.00  0.00    -0.057 C 
ATOM     17  C   UNL     1       4.113  -5.133   1.717  1.00  0.00     0.091 C 
ATOM     18  C   UNL     1       4.565  -3.229   3.751  1.00  0.00    -0.019 C 
ATOM     19  O   UNL     1       3.741  -3.822   1.578  1.00  0.00    -0.496 OA
ATOM     20  O   UNL     1       3.914  -5.951   0.824  1.00  0.00    -0.813 OA
ATOM     21  C   UNL     1       3.967  -2.873   2.607  1.00  0.00     0.129 C 
BRANCH  21  22
ATOM     22  C   UNL     1       3.515  -1.504   2.298  1.00  0.00     0.055 A 
ATOM     23  C   UNL     1       3.779  -0.311   3.012  1.00  0.00    -0.013 A 
ATOM     24  C   UNL     1       2.733  -1.142   1.226  1.00  0.00     0.101 A 
ATOM     25  C   UNL     1       3.139   0.695   2.326  1.00  0.00     0.091 A 
ATOM     26  O   UNL     1       2.499   0.197   1.235  1.00  0.00    -0.472 OA
ENDBRANCH  21  22
ENDBRANCH   1  15
TORSDOF 4
ENDMDL
MODEL 2
REMARK VINA RESULT:    -7.646      1.816      2.263
REMARK INTER + INTRA:         -10.282
REMARK INTER:                  -9.918
REMARK INTRA:                  -0.364
REMARK UNBOUND:                -0.848
REMARK SMILES O=C1C=CC[C@]2(O)[C]([O-])OC[C@@]12CCC1=CC=C(c2ccoc2)O[C]1[O-]
REMARK SMILES IDX 14 1 13 2 12 3 10 4 11 5 8 6 9 7 6 8 2 9 7 10 5 11 1 12 3 13
REMARK SMILES IDX 4 14 15 15 16 16 25 17 17 18 24 19 26 20 18 21 19 22 20 23
REMARK SMILES IDX 23 24 21 25 22 26
REMARK H PARENT
REMARK Flexibility Score: inf
ROOT
ATOM      1  C   UNL     1       6.119  -5.365   4.495  1.00  0.00    -0.028 C 
ENDROOT
BRANCH   1   2
ATOM      2  C   UNL     1       5.826  -6.600   5.330  1.00  0.00    -0.031 C 
BRANCH   2   3
ATOM      3  C   UNL     1       6.917  -7.675   5.110  1.00  0.00     0.087 C 
ATOM      4  O   UNL     1       8.859  -6.382   5.146  1.00  0.00    -0.386 OA
ATOM      5  C   UNL     1       7.997  -7.089   4.219  1.00  0.00     0.062 C 
ATOM      6  C   UNL     1       8.654  -6.837   6.434  1.00  0.00     0.042 C 
ATOM      7  O   UNL     1       9.179  -6.377   7.434  1.00  0.00    -0.825 OA
ATOM      8  C   UNL     1       7.734  -8.018   6.358  1.00  0.00     0.099 C 
ATOM      9  C   UNL     1       6.232  -8.961   4.680  1.00  0.00     0.166 C 
ATOM     10  O   UNL     1       8.660  -9.102   6.165  1.00  0.00    -0.387 OA
ATOM     11  C   UNL     1       6.844  -8.403   7.526  1.00  0.00    -0.003 C 
ATOM     12  O   UNL     1       6.132  -9.314   3.509  1.00  0.00    -0.294 OA
ATOM     13  C   UNL     1       5.598  -9.760   5.780  1.00  0.00    -0.022 C 
ATOM     14  C   UNL     1       5.857  -9.460   7.065  1.00  0.00    -0.078 C 
ENDBRANCH   2   3
ENDBRANCH   1   2
BRANCH   1  15
ATOM     15  C   UNL     1       4.899  -4.922   3.750  1.00  0.00    -0.040 C 
ATOM     16  C   UNL     1       4.161  -3.867   4.120  1.00  0.00    -0.057 C 
ATOM     17  C   UNL     1       4.504  -5.702   2.547  1.00  0.00     0.091 C 
ATOM     18  C   UNL     1       2.997  -3.467   3.384  1.00  0.00    -0.019 C 
ATOM     19  O   UNL     1       3.386  -5.289   1.874  1.00  0.00    -0.496 OA
ATOM     20  O   UNL     1       5.154  -6.673   2.173  1.00  0.00    -0.813 OA
ATOM     21  C   UNL     1       2.632  -4.168   2.303  1.00  0.00     0.129 C 
BRANCH  21  22
ATOM     22  C   UNL     1       1.461  -3.850   1.465  1.00  0.00     0.055 A 
ATOM     23  C   UNL     1       1.149  -4.337   0.174  1.00  0.00    -0.013 A 
ATOM     24  C   UNL     1       0.438  -2.997   1.809  1.00  0.00     0.101 A 
ATOM     25  C   UNL     1      -0.042  -3.747  -0.180  1.00  0.00     0.091 A 
ATOM     26  O   UNL     1      -0.482  -2.928   0.811  1.00  0.00    -0.472 OA
ENDBRANCH  21  22
ENDBRANCH   1  15
TORSDOF 4
ENDMDL
MODEL 3
REMARK VINA RESULT:    -7.429      1.974      2.694
REMARK INTER + INTRA:         -10.014
REMARK INTER:                  -9.199
REMARK INTRA:                  -0.815
REMARK UNBOUND:                -0.848
REMARK SMILES O=C1C=CC[C@]2(O)[C]([O-])OC[C@@]12CCC1=CC=C(c2ccoc2)O[C]1[O-]
REMARK SMILES IDX 14 1 13 2 12 3 10 4 11 5 8 6 9 7 6 8 2 9 7 10 5 11 1 12 3 13
REMARK SMILES IDX 4 14 15 15 16 16 25 17 17 18 24 19 26 20 18 21 19 22 20 23
REMARK SMILES IDX 23 24 21 25 22 26
REMARK H PARENT
REMARK Flexibility Score: inf
ROOT
ATOM      1  C   UNL     1       6.694  -7.912   5.315  1.00  0.00    -0.028 C 
ENDROOT
BRANCH   1   2
ATOM      2  C   UNL     1       7.177  -7.805   6.751  1.00  0.00    -0.031 C 
BRANCH   2   3
ATOM      3  C   UNL     1       8.389  -8.737   6.986  1.00  0.00     0.087 C 
ATOM      4  O   UNL     1      10.100  -7.551   5.932  1.00  0.00    -0.386 OA
ATOM      5  C   UNL     1       9.260  -8.718   5.743  1.00  0.00     0.062 C 
ATOM      6  C   UNL     1      10.113  -7.180   7.262  1.00  0.00     0.042 C 
ATOM      7  O   UNL     1      10.669  -6.192   7.710  1.00  0.00    -0.825 OA
ATOM      8  C   UNL     1       9.383  -8.235   8.037  1.00  0.00     0.099 C 
ATOM      9  C   UNL     1       7.867 -10.070   7.493  1.00  0.00     0.166 C 
ATOM     10  O   UNL     1      10.438  -9.170   8.329  1.00  0.00    -0.387 OA
ATOM     11  C   UNL     1       8.700  -7.919   9.354  1.00  0.00    -0.003 C 
ATOM     12  O   UNL     1       7.692 -11.046   6.771  1.00  0.00    -0.294 OA
ATOM     13  C   UNL     1       7.490 -10.113   8.945  1.00  0.00    -0.022 C 
ATOM     14  C   UNL     1       7.842  -9.104   9.761  1.00  0.00    -0.078 C 
ENDBRANCH   2   3
ENDBRANCH   1   2
BRANCH   1  15
ATOM     15  C   UNL     1       6.007  -6.653   4.887  1.00  0.00    -0.040 C 
ATOM     16  C   UNL     1       5.778  -5.627   5.717  1.00  0.00    -0.057 C 
ATOM     17  C   UNL     1       5.564  -6.557   3.470  1.00  0.00     0.091 C 
ATOM     18  C   UNL     1       5.116  -4.434   5.276  1.00  0.00    -0.019 C 
ATOM     19  O   UNL     1       4.935  -5.402   3.089  1.00  0.00    -0.496 OA
ATOM     20  O   UNL     1       5.756  -7.472   2.676  1.00  0.00    -0.813 OA
ATOM     21  C   UNL     1       4.710  -4.342   4.003  1.00  0.00     0.129 C 
BRANCH  21  22
ATOM     22  C   UNL     1       4.027  -3.165   3.433  1.00  0.00     0.055 A 
ATOM     23  C   UNL     1       4.539  -1.860   3.246  1.00  0.00    -0.013 A 
ATOM     24  C   UNL     1       2.732  -3.138   2.972  1.00  0.00     0.101 A 
ATOM     25  C   UNL     1       3.520  -1.127   2.683  1.00  0.00     0.091 A 
ATOM     26  O   UNL     1       2.414  -1.898   2.513  1.00  0.00    -0.472 OA
ENDBRANCH  21  22
ENDBRANCH   1  15
TORSDOF 4
ENDMDL
MODEL 4
REMARK VINA RESULT:    -7.424      1.342      2.538
REMARK INTER + INTRA:         -10.008
REMARK INTER:                  -9.015
REMARK INTRA:                  -0.993
REMARK UNBOUND:                -0.848
REMARK SMILES O=C1C=CC[C@]2(O)[C]([O-])OC[C@@]12CCC1=CC=C(c2ccoc2)O[C]1[O-]
REMARK SMILES IDX 14 1 13 2 12 3 10 4 11 5 8 6 9 7 6 8 2 9 7 10 5 11 1 12 3 13
REMARK SMILES IDX 4 14 15 15 16 16 25 17 17 18 24 19 26 20 18 21 19 22 20 23
REMARK SMILES IDX 23 24 21 25 22 26
REMARK H PARENT
REMARK Flexibility Score: inf
ROOT
ATOM      1  C   UNL     1       4.982  -6.985   2.792  1.00  0.00    -0.028 C 
ENDROOT
BRANCH   1   2
ATOM      2  C   UNL     1       6.436  -7.159   3.193  1.00  0.00    -0.031 C 
BRANCH   2   3
ATOM      3  C   UNL     1       6.546  -8.018   4.475  1.00  0.00     0.087 C 
ATOM      4  O   UNL     1       6.136 -10.158   3.639  1.00  0.00    -0.386 OA
ATOM      5  C   UNL     1       5.495  -9.112   4.413  1.00  0.00     0.062 C 
ATOM      6  C   UNL     1       7.504  -9.977   3.629  1.00  0.00     0.042 C 
ATOM      7  O   UNL     1       8.298 -10.653   2.997  1.00  0.00    -0.825 OA
ATOM      8  C   UNL     1       7.823  -8.857   4.573  1.00  0.00     0.099 C 
ATOM      9  C   UNL     1       6.556  -7.081   5.671  1.00  0.00     0.166 C 
ATOM     10  O   UNL     1       7.964  -9.554   5.823  1.00  0.00    -0.387 OA
ATOM     11  C   UNL     1       9.069  -8.008   4.401  1.00  0.00    -0.003 C 
ATOM     12  O   UNL     1       5.559  -6.827   6.339  1.00  0.00    -0.294 OA
ATOM     13  C   UNL     1       7.864  -6.403   5.956  1.00  0.00    -0.022 C 
ATOM     14  C   UNL     1       8.983  -6.813   5.334  1.00  0.00    -0.078 C 
ENDBRANCH   2   3
ENDBRANCH   1   2
BRANCH   1  15
ATOM     15  C   UNL     1       4.618  -5.535   2.716  1.00  0.00    -0.040 C 
ATOM     16  C   UNL     1       4.737  -4.697   3.754  1.00  0.00    -0.057 C 
ATOM     17  C   UNL     1       4.101  -5.021   1.420  1.00  0.00     0.091 C 
ATOM     18  C   UNL     1       4.379  -3.313   3.649  1.00  0.00    -0.019 C 
ATOM     19  O   UNL     1       3.770  -3.694   1.361  1.00  0.00    -0.496 OA
ATOM     20  O   UNL     1       3.979  -5.754   0.443  1.00  0.00    -0.813 OA
ATOM     21  C   UNL     1       3.908  -2.843   2.487  1.00  0.00     0.129 C 
BRANCH  21  22
ATOM     22  C   UNL     1       3.515  -1.440   2.257  1.00  0.00     0.055 A 
ATOM     23  C   UNL     1       3.830  -0.303   3.036  1.00  0.00    -0.013 A 
ATOM     24  C   UNL     1       2.749  -0.985   1.209  1.00  0.00     0.101 A 
ATOM     25  C   UNL     1       3.234   0.767   2.410  1.00  0.00     0.091 A 
ATOM     26  O   UNL     1       2.572   0.360   1.295  1.00  0.00    -0.472 OA
ENDBRANCH  21  22
ENDBRANCH   1  15
TORSDOF 4
ENDMDL
MODEL 5
REMARK VINA RESULT:    -7.361      2.220      3.826
REMARK INTER + INTRA:          -9.931
REMARK INTER:                  -9.033
REMARK INTRA:                  -0.898
REMARK UNBOUND:                -0.848
REMARK SMILES O=C1C=CC[C@]2(O)[C]([O-])OC[C@@]12CCC1=CC=C(c2ccoc2)O[C]1[O-]
REMARK SMILES IDX 14 1 13 2 12 3 10 4 11 5 8 6 9 7 6 8 2 9 7 10 5 11 1 12 3 13
REMARK SMILES IDX 4 14 15 15 16 16 25 17 17 18 24 19 26 20 18 21 19 22 20 23
REMARK SMILES IDX 23 24 21 25 22 26
REMARK H PARENT
REMARK Flexibility Score: inf
ROOT
ATOM      1  C   UNL     1       5.650  -5.254   4.103  1.00  0.00    -0.028 C 
ENDROOT
BRANCH   1   2
ATOM      2  C   UNL     1       6.471  -6.460   3.680  1.00  0.00    -0.031 C 
BRANCH   2   3
ATOM      3  C   UNL     1       6.926  -7.269   4.918  1.00  0.00     0.087 C 
ATOM      4  O   UNL     1       4.990  -8.470   5.426  1.00  0.00    -0.386 OA
ATOM      5  C   UNL     1       5.768  -7.340   5.897  1.00  0.00     0.062 C 
ATOM      6  C   UNL     1       5.758  -9.272   4.606  1.00  0.00     0.042 C 
ATOM      7  O   UNL     1       5.354 -10.250   4.001  1.00  0.00    -0.825 OA
ATOM      8  C   UNL     1       7.166  -8.757   4.654  1.00  0.00     0.099 C 
ATOM      9  C   UNL     1       8.251  -6.699   5.393  1.00  0.00     0.166 C 
ATOM     10  O   UNL     1       7.702  -9.468   5.784  1.00  0.00    -0.387 OA
ATOM     11  C   UNL     1       8.128  -8.977   3.501  1.00  0.00    -0.003 C 
ATOM     12  O   UNL     1       8.349  -5.891   6.311  1.00  0.00    -0.294 OA
ATOM     13  C   UNL     1       9.460  -7.124   4.612  1.00  0.00    -0.022 C 
ATOM     14  C   UNL     1       9.368  -8.132   3.727  1.00  0.00    -0.078 C 
ENDBRANCH   2   3
ENDBRANCH   1   2
BRANCH   1  15
ATOM     15  C   UNL     1       4.502  -5.035   3.169  1.00  0.00    -0.040 C 
ATOM     16  C   UNL     1       4.053  -5.978   2.329  1.00  0.00    -0.057 C 
ATOM     17  C   UNL     1       3.842  -3.702   3.188  1.00  0.00     0.091 C 
ATOM     18  C   UNL     1       2.950  -5.736   1.446  1.00  0.00    -0.019 C 
ATOM     19  O   UNL     1       2.793  -3.512   2.328  1.00  0.00    -0.496 OA
ATOM     20  O   UNL     1       4.219  -2.812   3.943  1.00  0.00    -0.813 OA
ATOM     21  C   UNL     1       2.354  -4.537   1.453  1.00  0.00     0.129 C 
BRANCH  21  22
ATOM     22  C   UNL     1       1.209  -4.174   0.597  1.00  0.00     0.055 A 
ATOM     23  C   UNL     1       0.928  -4.606  -0.720  1.00  0.00    -0.013 A 
ATOM     24  C   UNL     1       0.186  -3.324   0.947  1.00  0.00     0.101 A 
ATOM     25  C   UNL     1      -0.248  -3.990  -1.082  1.00  0.00     0.091 A 
ATOM     26  O   UNL     1      -0.707  -3.205  -0.071  1.00  0.00    -0.472 OA
ENDBRANCH  21  22
ENDBRANCH   1  15
TORSDOF 4
ENDMDL
