REMARK SMILES O=C(Nc1ccc2c(c1)OC(F)(F)O2)Nc1ccc(Cl)c(C(F)(F)F)c1
REMARK SMILES IDX 20 1 16 2 21 3 26 4 17 5 19 6 18 7 22 8 23 9 24 10 25 11
REMARK SMILES IDX 15 12 2 13 1 15 3 16 4 18 9 19 5 20 8 21 6 22 10 23 7 24
REMARK SMILES IDX 11 25 14 26 12 27 13 28
REMARK H PARENT 15 14 3 17
REMARK Flexibility Score: inf
ROOT
ATOM      1  Cl  UNL     1      94.650   6.527  16.262  1.00  0.00    -0.084 Cl
ATOM      2  C   UNL     1      93.381   2.896  13.899  1.00  0.00     0.043 A 
ATOM      3  C   UNL     1      93.486   5.299  14.127  1.00  0.00     0.076 A 
ATOM      4  C   UNL     1      93.100   4.170  13.404  1.00  0.00    -0.025 A 
ATOM      5  C   UNL     1      94.049   2.752  15.115  1.00  0.00    -0.037 A 
ATOM      6  C   UNL     1      94.154   5.154  15.343  1.00  0.00     0.053 A 
ATOM      7  C   UNL     1      94.436   3.880  15.837  1.00  0.00    -0.041 A 
ENDROOT
BRANCH   3   8
ATOM      8  C   UNL     1      93.168   6.646  13.562  1.00  0.00     0.417 C 
ATOM      9  F   UNL     1      92.310   6.579  12.505  1.00  0.00    -0.166 F 
ATOM     10  F   UNL     1      92.579   7.487  14.462  1.00  0.00    -0.166 F 
ATOM     11  F   UNL     1      94.264   7.318  13.107  1.00  0.00    -0.166 F 
ENDBRANCH   3   8
BRANCH   2  12
ATOM     12  N   UNL     1      92.988   1.750  13.167  1.00  0.00    -0.308 N 
ATOM     13  C   UNL     1      93.389   0.419  13.364  1.00  0.00     0.323 C 
ATOM     14  H   UNL     1      92.334   1.922  12.407  1.00  0.00     0.171 HD
ATOM     15  O   UNL     1      94.167   0.034  14.230  1.00  0.00    -0.248 OA
ATOM     16  N   UNL     1      92.760  -0.421  12.413  1.00  0.00    -0.308 N 
ATOM     17  H   UNL     1      92.138   0.041  11.754  1.00  0.00     0.171 HD
BRANCH  16  18
ATOM     18  C   UNL     1      92.880  -1.803  12.257  1.00  0.00     0.046 A 
ATOM     19  C   UNL     1      93.971  -2.470  12.818  1.00  0.00     0.008 A 
ATOM     20  C   UNL     1      91.903  -2.509  11.534  1.00  0.00    -0.035 A 
ATOM     21  C   UNL     1      94.048  -3.836  12.638  1.00  0.00     0.174 A 
ATOM     22  C   UNL     1      92.003  -3.892  11.366  1.00  0.00    -0.014 A 
ATOM     23  O   UNL     1      95.033  -4.649  13.110  1.00  0.00    -0.395 OA
ATOM     24  C   UNL     1      93.089  -4.529  11.932  1.00  0.00     0.172 A 
ATOM     25  C   UNL     1      94.577  -5.917  12.616  1.00  0.00     0.586 C 
ATOM     26  O   UNL     1      93.352  -5.863  11.871  1.00  0.00    -0.395 OA
ATOM     27  F   UNL     1      94.408  -6.757  13.669  1.00  0.00    -0.125 F 
ATOM     28  F   UNL     1      95.543  -6.446  11.824  1.00  0.00    -0.125 F 
ENDBRANCH  16  18
ENDBRANCH   2  12
TORSDOF 3
