MODEL 1
REMARK VINA RESULT:   -11.090      0.000      0.000
REMARK INTER + INTRA:         -15.831
REMARK INTER:                 -15.712
REMARK INTRA:                  -0.119
REMARK UNBOUND:                -1.176
REMARK SMILES CC(C)(C)c1cc(NC(=O)Nc2cccc(Cl)c2Cl)n(-c2ccc3c(c2)C[C@@H](C(=O)O)NC3)n1
REMARK SMILES IDX 32 2 27 3 25 4 28 5 24 6 33 7 21 8 26 9 23 10 22 11 29 12
REMARK SMILES IDX 30 13 31 14 20 16 34 17 7 18 5 19 6 20 8 21 9 23 10 24 11 25
REMARK SMILES IDX 12 27 18 28 13 29 19 30 16 31 14 32 17 33 15 34 2 35 1 36
REMARK SMILES IDX 3 37 4 38
REMARK H PARENT 32 1 31 15 8 22 11 26
REMARK Flexibility Score: inf
ROOT
ATOM      1  H   UNL     1      25.339  21.727   7.031  1.00  0.00     0.123 HD
ATOM      2  N   UNL     1      24.738  22.320   7.585  1.00  0.00    -0.300 NA
ATOM      3  C   UNL     1      22.410  23.020   7.971  1.00  0.00    -0.001 C 
ATOM      4  C   UNL     1      22.734  23.145   9.438  1.00  0.00    -0.039 A 
ATOM      5  C   UNL     1      23.342  22.045   7.245  1.00  0.00     0.110 C 
ATOM      6  C   UNL     1      23.983  22.721   9.927  1.00  0.00    -0.031 A 
ATOM      7  C   UNL     1      24.979  22.056   9.009  1.00  0.00     0.022 C 
ATOM      8  C   UNL     1      22.118  23.881  11.665  1.00  0.00     0.067 A 
ATOM      9  C   UNL     1      21.813  23.735  10.313  1.00  0.00    -0.033 A 
ATOM     10  C   UNL     1      24.276  22.864  11.289  1.00  0.00    -0.055 A 
ATOM     11  C   UNL     1      23.347  23.445  12.153  1.00  0.00    -0.036 A 
ENDROOT
BRANCH   5  12
ATOM     12  C   UNL     1      23.220  22.225   5.765  1.00  0.00     0.321 C 
ATOM     13  O   UNL     1      24.022  22.822   5.062  1.00  0.00    -0.251 OA
BRANCH  12  14
ATOM     14  O   UNL     1      22.089  21.637   5.303  1.00  0.00    -0.480 OA
ATOM     15  H   UNL     1      22.303  20.775   4.939  1.00  0.00     0.296 HD
ENDBRANCH  12  14
ENDBRANCH   5  12
BRANCH   8  16
ATOM     16  N   UNL     1      21.200  24.461  12.522  1.00  0.00    -0.217 N 
ATOM     17  N   UNL     1      21.567  25.498  13.305  1.00  0.00    -0.170 NA
ATOM     18  C   UNL     1      19.888  24.101  12.691  1.00  0.00     0.138 A 
ATOM     19  C   UNL     1      20.453  25.790  13.981  1.00  0.00     0.070 A 
ATOM     20  C   UNL     1      19.373  24.953  13.639  1.00  0.00     0.005 A 
BRANCH  18  21
ATOM     21  N   UNL     1      19.290  23.077  12.004  1.00  0.00    -0.292 N 
ATOM     22  H   UNL     1      19.910  22.403  11.577  1.00  0.00     0.173 HD
ATOM     23  C   UNL     1      17.899  22.856  11.825  1.00  0.00     0.324 C 
ATOM     24  O   UNL     1      17.010  23.572  12.271  1.00  0.00    -0.248 OA
ATOM     25  N   UNL     1      17.693  21.695  11.058  1.00  0.00    -0.306 N 
ATOM     26  H   UNL     1      18.527  21.209  10.760  1.00  0.00     0.171 HD
BRANCH  25  27
ATOM     27  C   UNL     1      16.464  21.125  10.653  1.00  0.00     0.063 A 
ATOM     28  C   UNL     1      16.335  19.759  10.457  1.00  0.00     0.083 A 
ATOM     29  C   UNL     1      15.389  21.981  10.461  1.00  0.00    -0.037 A 
ATOM     30  Cl  UNL     1      17.700  18.714  10.712  1.00  0.00    -0.080 Cl
ATOM     31  C   UNL     1      15.105  19.235  10.060  1.00  0.00     0.061 A 
ATOM     32  C   UNL     1      14.159  21.459  10.062  1.00  0.00    -0.059 A 
ATOM     33  Cl  UNL     1      14.856  17.544   9.792  1.00  0.00    -0.083 Cl
ATOM     34  C   UNL     1      14.017  20.085   9.862  1.00  0.00    -0.042 A 
ENDBRANCH  25  27
ENDBRANCH  18  21
BRANCH  19  35
ATOM     35  C   UNL     1      20.456  26.893  14.957  1.00  0.00     0.006 C 
ATOM     36  C   UNL     1      21.009  28.232  14.349  1.00  0.00    -0.054 C 
ATOM     37  C   UNL     1      21.328  26.664  16.248  1.00  0.00    -0.054 C 
ATOM     38  C   UNL     1      19.022  27.212  15.509  1.00  0.00    -0.054 C 
ENDBRANCH  19  35
ENDBRANCH   8  16
TORSDOF 6
ENDMDL
MODEL 2
REMARK VINA RESULT:    -9.919      2.152      2.870
REMARK INTER + INTRA:         -14.284
REMARK INTER:                 -14.339
REMARK INTRA:                   0.055
REMARK UNBOUND:                -1.176
REMARK SMILES CC(C)(C)c1cc(NC(=O)Nc2cccc(Cl)c2Cl)n(-c2ccc3c(c2)C[C@@H](C(=O)O)NC3)n1
REMARK SMILES IDX 32 2 27 3 25 4 28 5 24 6 33 7 21 8 26 9 23 10 22 11 29 12
REMARK SMILES IDX 30 13 31 14 20 16 34 17 7 18 5 19 6 20 8 21 9 23 10 24 11 25
REMARK SMILES IDX 12 27 18 28 13 29 19 30 16 31 14 32 17 33 15 34 2 35 1 36
REMARK SMILES IDX 3 37 4 38
REMARK H PARENT 32 1 31 15 8 22 11 26
REMARK Flexibility Score: inf
ROOT
ATOM      1  H   UNL     1      26.938  22.368   8.943  1.00  0.00     0.123 HD
ATOM      2  N   UNL     1      26.250  22.501   9.670  1.00  0.00    -0.300 NA
ATOM      3  C   UNL     1      25.729  23.719  11.744  1.00  0.00    -0.001 C 
ATOM      4  C   UNL     1      24.280  23.732  11.324  1.00  0.00    -0.039 A 
ATOM      5  C   UNL     1      26.683  23.582  10.554  1.00  0.00     0.110 C 
ATOM      6  C   UNL     1      23.907  23.263  10.052  1.00  0.00    -0.031 A 
ATOM      7  C   UNL     1      24.956  22.827   9.058  1.00  0.00     0.022 C 
ATOM      8  C   UNL     1      21.950  24.143  11.851  1.00  0.00     0.067 A 
ATOM      9  C   UNL     1      23.293  24.158  12.222  1.00  0.00    -0.033 A 
ATOM     10  C   UNL     1      22.555  23.262   9.686  1.00  0.00    -0.055 A 
ATOM     11  C   UNL     1      21.581  23.698  10.584  1.00  0.00    -0.036 A 
ENDROOT
BRANCH   5  12
ATOM     12  C   UNL     1      28.052  23.218  11.036  1.00  0.00     0.321 C 
ATOM     13  O   UNL     1      28.360  23.036  12.204  1.00  0.00    -0.251 OA
BRANCH  12  14
ATOM     14  O   UNL     1      28.915  23.119   9.995  1.00  0.00    -0.480 OA
ATOM     15  H   UNL     1      28.931  23.948   9.512  1.00  0.00     0.296 HD
ENDBRANCH  12  14
ENDBRANCH   5  12
BRANCH   8  16
ATOM     16  N   UNL     1      20.982  24.570  12.742  1.00  0.00    -0.217 N 
ATOM     17  N   UNL     1      21.281  25.502  13.672  1.00  0.00    -0.170 NA
ATOM     18  C   UNL     1      19.679  24.146  12.811  1.00  0.00     0.138 A 
ATOM     19  C   UNL     1      20.134  25.662  14.337  1.00  0.00     0.070 A 
ATOM     20  C   UNL     1      19.100  24.844  13.844  1.00  0.00     0.005 A 
BRANCH  18  21
ATOM     21  N   UNL     1      19.145  23.206  11.969  1.00  0.00    -0.292 N 
ATOM     22  H   UNL     1      19.796  22.726  11.364  1.00  0.00     0.173 HD
ATOM     23  C   UNL     1      17.781  22.829  11.853  1.00  0.00     0.324 C 
ATOM     24  O   UNL     1      16.860  23.307  12.506  1.00  0.00    -0.248 OA
ATOM     25  N   UNL     1      17.642  21.828  10.875  1.00  0.00    -0.306 N 
ATOM     26  H   UNL     1      18.494  21.534  10.419  1.00  0.00     0.171 HD
BRANCH  25  27
ATOM     27  C   UNL     1      16.457  21.181  10.453  1.00  0.00     0.063 A 
ATOM     28  C   UNL     1      16.388  19.799  10.356  1.00  0.00     0.083 A 
ATOM     29  C   UNL     1      15.365  21.977  10.140  1.00  0.00    -0.037 A 
ATOM     30  Cl  UNL     1      17.772  18.832  10.761  1.00  0.00    -0.080 Cl
ATOM     31  C   UNL     1      15.201  19.199   9.938  1.00  0.00     0.061 A 
ATOM     32  C   UNL     1      14.178  21.378   9.720  1.00  0.00    -0.059 A 
ATOM     33  Cl  UNL     1      15.026  17.484   9.789  1.00  0.00    -0.083 Cl
ATOM     34  C   UNL     1      14.095  19.989   9.619  1.00  0.00    -0.042 A 
ENDBRANCH  25  27
ENDBRANCH  18  21
BRANCH  19  35
ATOM     35  C   UNL     1      20.063  26.622  15.452  1.00  0.00     0.006 C 
ATOM     36  C   UNL     1      19.764  28.085  14.968  1.00  0.00    -0.054 C 
ATOM     37  C   UNL     1      21.367  26.760  16.323  1.00  0.00    -0.054 C 
ATOM     38  C   UNL     1      18.941  26.257  16.488  1.00  0.00    -0.054 C 
ENDBRANCH  19  35
ENDBRANCH   8  16
TORSDOF 6
ENDMDL
MODEL 3
REMARK VINA RESULT:    -9.006      5.192      8.538
REMARK INTER + INTRA:         -13.077
REMARK INTER:                 -11.880
REMARK INTRA:                  -1.197
REMARK UNBOUND:                -1.176
REMARK SMILES CC(C)(C)c1cc(NC(=O)Nc2cccc(Cl)c2Cl)n(-c2ccc3c(c2)C[C@@H](C(=O)O)NC3)n1
REMARK SMILES IDX 32 2 27 3 25 4 28 5 24 6 33 7 21 8 26 9 23 10 22 11 29 12
REMARK SMILES IDX 30 13 31 14 20 16 34 17 7 18 5 19 6 20 8 21 9 23 10 24 11 25
REMARK SMILES IDX 12 27 18 28 13 29 19 30 16 31 14 32 17 33 15 34 2 35 1 36
REMARK SMILES IDX 3 37 4 38
REMARK H PARENT 32 1 31 15 8 22 11 26
REMARK Flexibility Score: inf
ROOT
ATOM      1  H   UNL     1      25.079  21.563   7.547  1.00  0.00     0.123 HD
ATOM      2  N   UNL     1      24.662  22.284   8.116  1.00  0.00    -0.300 NA
ATOM      3  C   UNL     1      22.544  23.360   8.761  1.00  0.00    -0.001 C 
ATOM      4  C   UNL     1      23.113  23.559  10.143  1.00  0.00    -0.039 A 
ATOM      5  C   UNL     1      23.205  22.197   8.015  1.00  0.00     0.110 C 
ATOM      6  C   UNL     1      24.355  22.994  10.486  1.00  0.00    -0.031 A 
ATOM      7  C   UNL     1      25.090  22.110   9.510  1.00  0.00     0.022 C 
ATOM      8  C   UNL     1      22.969  24.568  12.343  1.00  0.00     0.067 A 
ATOM      9  C   UNL     1      22.433  24.355  11.074  1.00  0.00    -0.033 A 
ATOM     10  C   UNL     1      24.879  23.207  11.768  1.00  0.00    -0.055 A 
ATOM     11  C   UNL     1      24.189  23.993  12.691  1.00  0.00    -0.036 A 
ENDROOT
BRANCH   5  12
ATOM     12  C   UNL     1      22.872  22.267   6.559  1.00  0.00     0.321 C 
ATOM     13  O   UNL     1      23.677  22.481   5.664  1.00  0.00    -0.251 OA
BRANCH  12  14
ATOM     14  O   UNL     1      21.547  22.062   6.360  1.00  0.00    -0.480 OA
ATOM     15  H   UNL     1      21.126  22.893   6.127  1.00  0.00     0.296 HD
ENDBRANCH  12  14
ENDBRANCH   5  12
BRANCH   8  16
ATOM     16  N   UNL     1      22.288  25.351  13.258  1.00  0.00    -0.217 N 
ATOM     17  N   UNL     1      21.102  24.939  13.753  1.00  0.00    -0.170 NA
ATOM     18  C   UNL     1      22.683  26.566  13.759  1.00  0.00     0.138 A 
ATOM     19  C   UNL     1      20.750  25.923  14.584  1.00  0.00     0.070 A 
ATOM     20  C   UNL     1      21.697  26.963  14.629  1.00  0.00     0.005 A 
BRANCH  18  21
ATOM     21  N   UNL     1      23.853  27.186  13.403  1.00  0.00    -0.292 N 
ATOM     22  H   UNL     1      23.841  27.699  12.533  1.00  0.00     0.173 HD
ATOM     23  C   UNL     1      25.079  27.188  14.120  1.00  0.00     0.324 C 
ATOM     24  O   UNL     1      25.270  26.618  15.188  1.00  0.00    -0.248 OA
ATOM     25  N   UNL     1      26.041  27.940  13.421  1.00  0.00    -0.306 N 
ATOM     26  H   UNL     1      25.733  28.351  12.551  1.00  0.00     0.171 HD
BRANCH  25  27
ATOM     27  C   UNL     1      27.383  28.192  13.788  1.00  0.00     0.063 A 
ATOM     28  C   UNL     1      28.423  27.434  13.271  1.00  0.00     0.083 A 
ATOM     29  C   UNL     1      27.624  29.225  14.681  1.00  0.00    -0.037 A 
ATOM     30  Cl  UNL     1      28.086  26.150  12.150  1.00  0.00    -0.080 Cl
ATOM     31  C   UNL     1      29.734  27.714  13.655  1.00  0.00     0.061 A 
ATOM     32  C   UNL     1      28.935  29.506  15.067  1.00  0.00    -0.059 A 
ATOM     33  Cl  UNL     1      31.090  26.820  13.061  1.00  0.00    -0.083 Cl
ATOM     34  C   UNL     1      29.990  28.750  14.554  1.00  0.00    -0.042 A 
ENDBRANCH  25  27
ENDBRANCH  18  21
BRANCH  19  35
ATOM     35  C   UNL     1      19.483  25.831  15.330  1.00  0.00     0.006 C 
ATOM     36  C   UNL     1      18.240  26.229  14.457  1.00  0.00    -0.054 C 
ATOM     37  C   UNL     1      19.371  26.748  16.606  1.00  0.00    -0.054 C 
ATOM     38  C   UNL     1      19.206  24.383  15.869  1.00  0.00    -0.054 C 
ENDBRANCH  19  35
ENDBRANCH   8  16
TORSDOF 6
ENDMDL
MODEL 4
REMARK VINA RESULT:    -8.889      5.637      8.307
REMARK INTER + INTRA:         -12.923
REMARK INTER:                 -12.776
REMARK INTRA:                  -0.146
REMARK UNBOUND:                -1.176
REMARK SMILES CC(C)(C)c1cc(NC(=O)Nc2cccc(Cl)c2Cl)n(-c2ccc3c(c2)C[C@@H](C(=O)O)NC3)n1
REMARK SMILES IDX 32 2 27 3 25 4 28 5 24 6 33 7 21 8 26 9 23 10 22 11 29 12
REMARK SMILES IDX 30 13 31 14 20 16 34 17 7 18 5 19 6 20 8 21 9 23 10 24 11 25
REMARK SMILES IDX 12 27 18 28 13 29 19 30 16 31 14 32 17 33 15 34 2 35 1 36
REMARK SMILES IDX 3 37 4 38
REMARK H PARENT 32 1 31 15 8 22 11 26
REMARK Flexibility Score: inf
ROOT
ATOM      1  H   UNL     1      29.822  28.137  15.633  1.00  0.00     0.123 HD
ATOM      2  N   UNL     1      28.844  27.892  15.697  1.00  0.00    -0.300 NA
ATOM      3  C   UNL     1      26.568  28.775  16.010  1.00  0.00    -0.001 C 
ATOM      4  C   UNL     1      26.068  27.702  15.076  1.00  0.00    -0.039 A 
ATOM      5  C   UNL     1      28.044  29.114  15.778  1.00  0.00     0.110 C 
ATOM      6  C   UNL     1      26.978  26.876  14.392  1.00  0.00    -0.031 A 
ATOM      7  C   UNL     1      28.464  27.109  14.515  1.00  0.00     0.022 C 
ATOM      8  C   UNL     1      24.223  26.477  14.088  1.00  0.00     0.067 A 
ATOM      9  C   UNL     1      24.692  27.487  14.927  1.00  0.00    -0.033 A 
ATOM     10  C   UNL     1      26.496  25.870  13.545  1.00  0.00    -0.055 A 
ATOM     11  C   UNL     1      25.123  25.671  13.396  1.00  0.00    -0.036 A 
ENDROOT
BRANCH   5  12
ATOM     12  C   UNL     1      28.577  29.898  16.935  1.00  0.00     0.321 C 
ATOM     13  O   UNL     1      29.111  29.416  17.923  1.00  0.00    -0.251 OA
BRANCH  12  14
ATOM     14  O   UNL     1      28.385  31.226  16.743  1.00  0.00    -0.480 OA
ATOM     15  H   UNL     1      29.180  31.613  16.371  1.00  0.00     0.296 HD
ENDBRANCH  12  14
ENDBRANCH   5  12
BRANCH   8  16
ATOM     16  N   UNL     1      22.862  26.275  13.944  1.00  0.00    -0.217 N 
ATOM     17  N   UNL     1      22.039  26.424  15.003  1.00  0.00    -0.170 NA
ATOM     18  C   UNL     1      22.198  25.920  12.797  1.00  0.00     0.138 A 
ATOM     19  C   UNL     1      20.831  26.156  14.503  1.00  0.00     0.070 A 
ATOM     20  C   UNL     1      20.868  25.836  13.132  1.00  0.00     0.005 A 
BRANCH  18  21
ATOM     21  N   UNL     1      22.823  25.713  11.595  1.00  0.00    -0.292 N 
ATOM     22  H   UNL     1      23.336  26.496  11.217  1.00  0.00     0.173 HD
ATOM     23  C   UNL     1      22.832  24.522  10.823  1.00  0.00     0.324 C 
ATOM     24  O   UNL     1      22.263  23.480  11.130  1.00  0.00    -0.248 OA
ATOM     25  N   UNL     1      23.588  24.714   9.653  1.00  0.00    -0.306 N 
ATOM     26  H   UNL     1      23.997  25.630   9.537  1.00  0.00     0.171 HD
BRANCH  25  27
ATOM     27  C   UNL     1      23.846  23.784   8.619  1.00  0.00     0.063 A 
ATOM     28  C   UNL     1      24.017  24.197   7.307  1.00  0.00     0.083 A 
ATOM     29  C   UNL     1      23.924  22.443   8.965  1.00  0.00    -0.037 A 
ATOM     30  Cl  UNL     1      23.918  25.885   6.910  1.00  0.00    -0.080 Cl
ATOM     31  C   UNL     1      24.271  23.249   6.317  1.00  0.00     0.061 A 
ATOM     32  C   UNL     1      24.177  21.493   7.975  1.00  0.00    -0.059 A 
ATOM     33  Cl  UNL     1      24.497  23.675   4.655  1.00  0.00    -0.083 Cl
ATOM     34  C   UNL     1      24.351  21.896   6.650  1.00  0.00    -0.042 A 
ENDBRANCH  25  27
ENDBRANCH  18  21
BRANCH  19  35
ATOM     35  C   UNL     1      19.647  26.218  15.376  1.00  0.00     0.006 C 
ATOM     36  C   UNL     1      19.862  27.157  16.616  1.00  0.00    -0.054 C 
ATOM     37  C   UNL     1      19.182  24.849  16.001  1.00  0.00    -0.054 C 
ATOM     38  C   UNL     1      18.375  26.754  14.627  1.00  0.00    -0.054 C 
ENDBRANCH  19  35
ENDBRANCH   8  16
TORSDOF 6
ENDMDL
MODEL 5
REMARK VINA RESULT:    -8.654      4.482      8.413
REMARK INTER + INTRA:         -12.612
REMARK INTER:                 -11.424
REMARK INTRA:                  -1.188
REMARK UNBOUND:                -1.176
REMARK SMILES CC(C)(C)c1cc(NC(=O)Nc2cccc(Cl)c2Cl)n(-c2ccc3c(c2)C[C@@H](C(=O)O)NC3)n1
REMARK SMILES IDX 32 2 27 3 25 4 28 5 24 6 33 7 21 8 26 9 23 10 22 11 29 12
REMARK SMILES IDX 30 13 31 14 20 16 34 17 7 18 5 19 6 20 8 21 9 23 10 24 11 25
REMARK SMILES IDX 12 27 18 28 13 29 19 30 16 31 14 32 17 33 15 34 2 35 1 36
REMARK SMILES IDX 3 37 4 38
REMARK H PARENT 32 1 31 15 8 22 11 26
REMARK Flexibility Score: inf
ROOT
ATOM      1  H   UNL     1      17.893  26.005  14.417  1.00  0.00     0.123 HD
ATOM      2  N   UNL     1      18.898  25.989  14.519  1.00  0.00    -0.300 NA
ATOM      3  C   UNL     1      21.009  25.249  13.492  1.00  0.00    -0.001 C 
ATOM      4  C   UNL     1      21.663  26.493  14.039  1.00  0.00    -0.039 A 
ATOM      5  C   UNL     1      19.496  25.411  13.315  1.00  0.00     0.110 C 
ATOM      6  C   UNL     1      20.888  27.483  14.669  1.00  0.00    -0.031 A 
ATOM      7  C   UNL     1      19.385  27.358  14.725  1.00  0.00     0.022 C 
ATOM      8  C   UNL     1      23.668  27.775  14.504  1.00  0.00     0.067 A 
ATOM      9  C   UNL     1      23.054  26.641  13.973  1.00  0.00    -0.033 A 
ATOM     10  C   UNL     1      21.514  28.623  15.190  1.00  0.00    -0.055 A 
ATOM     11  C   UNL     1      22.899  28.765  15.110  1.00  0.00    -0.036 A 
ENDROOT
BRANCH   5  12
ATOM     12  C   UNL     1      18.858  24.072  13.121  1.00  0.00     0.321 C 
ATOM     13  O   UNL     1      18.755  23.211  13.983  1.00  0.00    -0.251 OA
BRANCH  12  14
ATOM     14  O   UNL     1      18.405  23.937  11.851  1.00  0.00    -0.480 OA
ATOM     15  H   UNL     1      17.540  24.346  11.773  1.00  0.00     0.296 HD
ENDBRANCH  12  14
ENDBRANCH   5  12
BRANCH   8  16
ATOM     16  N   UNL     1      25.042  27.915  14.430  1.00  0.00    -0.217 N 
ATOM     17  N   UNL     1      25.758  28.169  15.546  1.00  0.00    -0.170 NA
ATOM     18  C   UNL     1      25.822  27.825  13.304  1.00  0.00     0.138 A 
ATOM     19  C   UNL     1      27.016  28.239  15.103  1.00  0.00     0.070 A 
ATOM     20  C   UNL     1      27.117  28.032  13.714  1.00  0.00     0.005 A 
BRANCH  18  21
ATOM     21  N   UNL     1      25.318  27.572  12.055  1.00  0.00    -0.292 N 
ATOM     22  H   UNL     1      24.723  28.286  11.659  1.00  0.00     0.173 HD
ATOM     23  C   UNL     1      25.538  26.421  11.254  1.00  0.00     0.324 C 
ATOM     24  O   UNL     1      26.229  25.461  11.577  1.00  0.00    -0.248 OA
ATOM     25  N   UNL     1      24.845  26.544  10.036  1.00  0.00    -0.306 N 
ATOM     26  H   UNL     1      24.316  27.395   9.914  1.00  0.00     0.171 HD
BRANCH  25  27
ATOM     27  C   UNL     1      24.799  25.623   8.963  1.00  0.00     0.063 A 
ATOM     28  C   UNL     1      23.947  24.530   8.991  1.00  0.00     0.083 A 
ATOM     29  C   UNL     1      25.635  25.854   7.881  1.00  0.00    -0.037 A 
ATOM     30  Cl  UNL     1      22.910  24.274  10.361  1.00  0.00    -0.080 Cl
ATOM     31  C   UNL     1      23.930  23.646   7.913  1.00  0.00     0.061 A 
ATOM     32  C   UNL     1      25.619  24.970   6.802  1.00  0.00    -0.059 A 
ATOM     33  Cl  UNL     1      22.899  22.257   7.864  1.00  0.00    -0.083 Cl
ATOM     34  C   UNL     1      24.766  23.866   6.818  1.00  0.00    -0.042 A 
ENDBRANCH  25  27
ENDBRANCH  18  21
BRANCH  19  35
ATOM     35  C   UNL     1      28.111  28.508  16.050  1.00  0.00     0.006 C 
ATOM     36  C   UNL     1      28.496  30.029  16.110  1.00  0.00    -0.054 C 
ATOM     37  C   UNL     1      29.472  27.775  15.751  1.00  0.00    -0.054 C 
ATOM     38  C   UNL     1      27.755  28.079  17.518  1.00  0.00    -0.054 C 
ENDBRANCH  19  35
ENDBRANCH   8  16
TORSDOF 6
ENDMDL
MODEL 6
REMARK VINA RESULT:    -8.561      5.556      8.101
REMARK INTER + INTRA:         -12.489
REMARK INTER:                 -11.695
REMARK INTRA:                  -0.794
REMARK UNBOUND:                -1.176
REMARK SMILES CC(C)(C)c1cc(NC(=O)Nc2cccc(Cl)c2Cl)n(-c2ccc3c(c2)C[C@@H](C(=O)O)NC3)n1
REMARK SMILES IDX 32 2 27 3 25 4 28 5 24 6 33 7 21 8 26 9 23 10 22 11 29 12
REMARK SMILES IDX 30 13 31 14 20 16 34 17 7 18 5 19 6 20 8 21 9 23 10 24 11 25
REMARK SMILES IDX 12 27 18 28 13 29 19 30 16 31 14 32 17 33 15 34 2 35 1 36
REMARK SMILES IDX 3 37 4 38
REMARK H PARENT 32 1 31 15 8 22 11 26
REMARK Flexibility Score: inf
ROOT
ATOM      1  H   UNL     1      23.145  29.642   3.858  1.00  0.00     0.123 HD
ATOM      2  N   UNL     1      23.782  29.269   4.546  1.00  0.00    -0.300 NA
ATOM      3  C   UNL     1      25.005  29.759   6.625  1.00  0.00    -0.001 C 
ATOM      4  C   UNL     1      24.812  28.320   7.030  1.00  0.00    -0.039 A 
ATOM      5  C   UNL     1      23.943  30.237   5.631  1.00  0.00     0.110 C 
ATOM      6  C   UNL     1      24.003  27.468   6.256  1.00  0.00    -0.031 A 
ATOM      7  C   UNL     1      23.247  28.003   5.065  1.00  0.00     0.022 C 
ATOM      8  C   UNL     1      25.332  26.471   8.511  1.00  0.00     0.067 A 
ATOM      9  C   UNL     1      25.482  27.809   8.149  1.00  0.00    -0.033 A 
ATOM     10  C   UNL     1      23.850  26.128   6.635  1.00  0.00    -0.055 A 
ATOM     11  C   UNL     1      24.516  25.632   7.757  1.00  0.00    -0.036 A 
ENDROOT
BRANCH   5  12
ATOM     12  C   UNL     1      24.375  31.521   4.997  1.00  0.00     0.321 C 
ATOM     13  O   UNL     1      24.044  31.901   3.883  1.00  0.00    -0.251 OA
BRANCH  12  14
ATOM     14  O   UNL     1      25.193  32.214   5.827  1.00  0.00    -0.480 OA
ATOM     15  H   UNL     1      25.417  33.056   5.427  1.00  0.00     0.296 HD
ENDBRANCH  12  14
ENDBRANCH   5  12
BRANCH   8  16
ATOM     16  N   UNL     1      25.995  25.977   9.620  1.00  0.00    -0.217 N 
ATOM     17  N   UNL     1      27.292  25.617   9.528  1.00  0.00    -0.170 NA
ATOM     18  C   UNL     1      25.476  25.793  10.877  1.00  0.00     0.138 A 
ATOM     19  C   UNL     1      27.589  25.197  10.761  1.00  0.00     0.070 A 
ATOM     20  C   UNL     1      26.497  25.284  11.644  1.00  0.00     0.005 A 
BRANCH  18  21
ATOM     21  N   UNL     1      24.180  26.088  11.210  1.00  0.00    -0.292 N 
ATOM     22  H   UNL     1      23.552  26.278  10.442  1.00  0.00     0.173 HD
ATOM     23  C   UNL     1      23.620  26.157  12.513  1.00  0.00     0.324 C 
ATOM     24  O   UNL     1      24.235  25.958  13.555  1.00  0.00    -0.248 OA
ATOM     25  N   UNL     1      22.256  26.489  12.432  1.00  0.00    -0.306 N 
ATOM     26  H   UNL     1      21.889  26.624  11.500  1.00  0.00     0.171 HD
BRANCH  25  27
ATOM     27  C   UNL     1      21.336  26.657  13.493  1.00  0.00     0.063 A 
ATOM     28  C   UNL     1      20.725  25.567  14.093  1.00  0.00     0.083 A 
ATOM     29  C   UNL     1      21.066  27.951  13.912  1.00  0.00    -0.037 A 
ATOM     30  Cl  UNL     1      21.089  23.959  13.547  1.00  0.00    -0.080 Cl
ATOM     31  C   UNL     1      19.824  25.775  15.137  1.00  0.00     0.061 A 
ATOM     32  C   UNL     1      20.164  28.160  14.956  1.00  0.00    -0.059 A 
ATOM     33  Cl  UNL     1      19.017  24.473  15.944  1.00  0.00    -0.083 Cl
ATOM     34  C   UNL     1      19.543  27.072  15.569  1.00  0.00    -0.042 A 
ENDBRANCH  25  27
ENDBRANCH  18  21
BRANCH  19  35
ATOM     35  C   UNL     1      28.948  24.715  11.062  1.00  0.00     0.006 C 
ATOM     36  C   UNL     1      29.950  25.886  11.358  1.00  0.00    -0.054 C 
ATOM     37  C   UNL     1      29.649  23.883   9.923  1.00  0.00    -0.054 C 
ATOM     38  C   UNL     1      28.986  23.767  12.313  1.00  0.00    -0.054 C 
ENDBRANCH  19  35
ENDBRANCH   8  16
TORSDOF 6
ENDMDL
MODEL 7
REMARK VINA RESULT:    -8.542      6.505      9.902
REMARK INTER + INTRA:         -12.465
REMARK INTER:                 -11.105
REMARK INTRA:                  -1.359
REMARK UNBOUND:                -1.176
REMARK SMILES CC(C)(C)c1cc(NC(=O)Nc2cccc(Cl)c2Cl)n(-c2ccc3c(c2)C[C@@H](C(=O)O)NC3)n1
REMARK SMILES IDX 32 2 27 3 25 4 28 5 24 6 33 7 21 8 26 9 23 10 22 11 29 12
REMARK SMILES IDX 30 13 31 14 20 16 34 17 7 18 5 19 6 20 8 21 9 23 10 24 11 25
REMARK SMILES IDX 12 27 18 28 13 29 19 30 16 31 14 32 17 33 15 34 2 35 1 36
REMARK SMILES IDX 3 37 4 38
REMARK H PARENT 32 1 31 15 8 22 11 26
REMARK Flexibility Score: inf
ROOT
ATOM      1  H   UNL     1      27.611  26.505   8.217  1.00  0.00     0.123 HD
ATOM      2  N   UNL     1      27.103  26.779   9.045  1.00  0.00    -0.300 NA
ATOM      3  C   UNL     1      25.288  28.199   9.910  1.00  0.00    -0.001 C 
ATOM      4  C   UNL     1      24.975  27.118  10.913  1.00  0.00    -0.039 A 
ATOM      5  C   UNL     1      25.997  27.658   8.665  1.00  0.00     0.110 C 
ATOM      6  C   UNL     1      25.634  25.877  10.846  1.00  0.00    -0.031 A 
ATOM      7  C   UNL     1      26.594  25.579   9.721  1.00  0.00     0.022 C 
ATOM      8  C   UNL     1      23.796  26.379  12.898  1.00  0.00     0.067 A 
ATOM      9  C   UNL     1      24.067  27.364  11.950  1.00  0.00    -0.033 A 
ATOM     10  C   UNL     1      25.347  24.890  11.798  1.00  0.00    -0.055 A 
ATOM     11  C   UNL     1      24.433  25.143  12.822  1.00  0.00    -0.036 A 
ENDROOT
BRANCH   5  12
ATOM     12  C   UNL     1      26.596  28.786   7.885  1.00  0.00     0.321 C 
ATOM     13  O   UNL     1      25.961  29.612   7.246  1.00  0.00    -0.251 OA
BRANCH  12  14
ATOM     14  O   UNL     1      27.948  28.769   7.980  1.00  0.00    -0.480 OA
ATOM     15  H   UNL     1      28.282  29.668   7.961  1.00  0.00     0.296 HD
ENDBRANCH  12  14
ENDBRANCH   5  12
BRANCH   8  16
ATOM     16  N   UNL     1      22.894  26.629  13.917  1.00  0.00    -0.217 N 
ATOM     17  N   UNL     1      21.730  25.948  13.974  1.00  0.00    -0.170 NA
ATOM     18  C   UNL     1      23.034  27.534  14.939  1.00  0.00     0.138 A 
ATOM     19  C   UNL     1      21.130  26.441  15.059  1.00  0.00     0.070 A 
ATOM     20  C   UNL     1      21.896  27.432  15.702  1.00  0.00     0.005 A 
BRANCH  18  21
ATOM     21  N   UNL     1      24.132  28.339  15.090  1.00  0.00    -0.292 N 
ATOM     22  H   UNL     1      23.979  29.331  14.976  1.00  0.00     0.173 HD
ATOM     23  C   UNL     1      25.460  27.937  15.390  1.00  0.00     0.324 C 
ATOM     24  O   UNL     1      25.824  26.778  15.559  1.00  0.00    -0.248 OA
ATOM     25  N   UNL     1      26.298  29.064  15.462  1.00  0.00    -0.306 N 
ATOM     26  H   UNL     1      25.853  29.957  15.299  1.00  0.00     0.171 HD
BRANCH  25  27
ATOM     27  C   UNL     1      27.685  29.103  15.736  1.00  0.00     0.063 A 
ATOM     28  C   UNL     1      28.622  28.959  14.724  1.00  0.00     0.083 A 
ATOM     29  C   UNL     1      28.076  29.293  17.053  1.00  0.00    -0.037 A 
ATOM     30  Cl  UNL     1      28.097  28.728  13.084  1.00  0.00    -0.080 Cl
ATOM     31  C   UNL     1      29.980  29.004  15.034  1.00  0.00     0.061 A 
ATOM     32  C   UNL     1      29.435  29.337  17.365  1.00  0.00    -0.059 A 
ATOM     33  Cl  UNL     1      31.216  28.833  13.835  1.00  0.00    -0.083 Cl
ATOM     34  C   UNL     1      30.387  29.193  16.356  1.00  0.00    -0.042 A 
ENDBRANCH  25  27
ENDBRANCH  18  21
BRANCH  19  35
ATOM     35  C   UNL     1      19.807  25.932  15.459  1.00  0.00     0.006 C 
ATOM     36  C   UNL     1      19.851  24.428  15.909  1.00  0.00    -0.054 C 
ATOM     37  C   UNL     1      18.692  25.971  14.347  1.00  0.00    -0.054 C 
ATOM     38  C   UNL     1      19.189  26.738  16.656  1.00  0.00    -0.054 C 
ENDBRANCH  19  35
ENDBRANCH   8  16
TORSDOF 6
ENDMDL
MODEL 8
REMARK VINA RESULT:    -8.423      4.783      6.946
REMARK INTER + INTRA:         -12.307
REMARK INTER:                 -11.130
REMARK INTRA:                  -1.177
REMARK UNBOUND:                -1.176
REMARK SMILES CC(C)(C)c1cc(NC(=O)Nc2cccc(Cl)c2Cl)n(-c2ccc3c(c2)C[C@@H](C(=O)O)NC3)n1
REMARK SMILES IDX 32 2 27 3 25 4 28 5 24 6 33 7 21 8 26 9 23 10 22 11 29 12
REMARK SMILES IDX 30 13 31 14 20 16 34 17 7 18 5 19 6 20 8 21 9 23 10 24 11 25
REMARK SMILES IDX 12 27 18 28 13 29 19 30 16 31 14 32 17 33 15 34 2 35 1 36
REMARK SMILES IDX 3 37 4 38
REMARK H PARENT 32 1 31 15 8 22 11 26
REMARK Flexibility Score: inf
ROOT
ATOM      1  H   UNL     1      23.196  20.009   5.530  1.00  0.00     0.123 HD
ATOM      2  N   UNL     1      23.777  20.761   5.870  1.00  0.00    -0.300 NA
ATOM      3  C   UNL     1      24.218  23.179   5.730  1.00  0.00    -0.001 C 
ATOM      4  C   UNL     1      24.586  23.154   7.193  1.00  0.00    -0.039 A 
ATOM      5  C   UNL     1      23.280  22.032   5.342  1.00  0.00     0.110 C 
ATOM      6  C   UNL     1      24.399  21.985   7.951  1.00  0.00    -0.031 A 
ATOM      7  C   UNL     1      23.747  20.770   7.338  1.00  0.00     0.022 C 
ATOM      8  C   UNL     1      25.538  24.254   9.132  1.00  0.00     0.067 A 
ATOM      9  C   UNL     1      25.168  24.280   7.789  1.00  0.00    -0.033 A 
ATOM     10  C   UNL     1      24.765  21.973   9.303  1.00  0.00    -0.055 A 
ATOM     11  C   UNL     1      25.335  23.103   9.889  1.00  0.00    -0.036 A 
ENDROOT
BRANCH   5  12
ATOM     12  C   UNL     1      23.237  21.888   3.853  1.00  0.00     0.321 C 
ATOM     13  O   UNL     1      24.212  21.722   3.135  1.00  0.00    -0.251 OA
BRANCH  12  14
ATOM     14  O   UNL     1      21.962  21.970   3.401  1.00  0.00    -0.480 OA
ATOM     15  H   UNL     1      21.701  22.892   3.344  1.00  0.00     0.296 HD
ENDBRANCH  12  14
ENDBRANCH   5  12
BRANCH   8  16
ATOM     16  N   UNL     1      26.108  25.372   9.714  1.00  0.00    -0.217 N 
ATOM     17  N   UNL     1      27.404  25.672   9.480  1.00  0.00    -0.170 NA
ATOM     18  C   UNL     1      25.495  26.272  10.548  1.00  0.00     0.138 A 
ATOM     19  C   UNL     1      27.601  26.787  10.187  1.00  0.00     0.070 A 
ATOM     20  C   UNL     1      26.447  27.208  10.873  1.00  0.00     0.005 A 
BRANCH  18  21
ATOM     21  N   UNL     1      24.181  26.176  10.929  1.00  0.00    -0.292 N 
ATOM     22  H   UNL     1      23.494  26.409  10.227  1.00  0.00     0.173 HD
ATOM     23  C   UNL     1      23.679  25.784  12.198  1.00  0.00     0.324 C 
ATOM     24  O   UNL     1      24.368  25.470  13.162  1.00  0.00    -0.248 OA
ATOM     25  N   UNL     1      22.273  25.812  12.186  1.00  0.00    -0.306 N 
ATOM     26  H   UNL     1      21.844  26.093  11.315  1.00  0.00     0.171 HD
BRANCH  25  27
ATOM     27  C   UNL     1      21.386  25.495  13.241  1.00  0.00     0.063 A 
ATOM     28  C   UNL     1      20.991  26.455  14.160  1.00  0.00     0.083 A 
ATOM     29  C   UNL     1      20.924  24.190  13.324  1.00  0.00    -0.037 A 
ATOM     30  Cl  UNL     1      21.584  28.082  14.024  1.00  0.00    -0.080 Cl
ATOM     31  C   UNL     1      20.114  26.103  15.186  1.00  0.00     0.061 A 
ATOM     32  C   UNL     1      20.048  23.837  14.350  1.00  0.00    -0.059 A 
ATOM     33  Cl  UNL     1      19.569  27.236  16.374  1.00  0.00    -0.083 Cl
ATOM     34  C   UNL     1      19.642  24.794  15.281  1.00  0.00    -0.042 A 
ENDBRANCH  25  27
ENDBRANCH  18  21
BRANCH  19  35
ATOM     35  C   UNL     1      28.925  27.432  10.181  1.00  0.00     0.006 C 
ATOM     36  C   UNL     1      29.064  28.511   9.049  1.00  0.00    -0.054 C 
ATOM     37  C   UNL     1      30.155  26.473   9.956  1.00  0.00    -0.054 C 
ATOM     38  C   UNL     1      29.245  28.161  11.534  1.00  0.00    -0.054 C 
ENDBRANCH  19  35
ENDBRANCH   8  16
TORSDOF 6
ENDMDL
MODEL 9
REMARK VINA RESULT:    -8.404      5.258     10.699
REMARK INTER + INTRA:         -12.282
REMARK INTER:                 -11.430
REMARK INTRA:                  -0.852
REMARK UNBOUND:                -1.176
REMARK SMILES CC(C)(C)c1cc(NC(=O)Nc2cccc(Cl)c2Cl)n(-c2ccc3c(c2)C[C@@H](C(=O)O)NC3)n1
REMARK SMILES IDX 32 2 27 3 25 4 28 5 24 6 33 7 21 8 26 9 23 10 22 11 29 12
REMARK SMILES IDX 30 13 31 14 20 16 34 17 7 18 5 19 6 20 8 21 9 23 10 24 11 25
REMARK SMILES IDX 12 27 18 28 13 29 19 30 16 31 14 32 17 33 15 34 2 35 1 36
REMARK SMILES IDX 3 37 4 38
REMARK H PARENT 32 1 31 15 8 22 11 26
REMARK Flexibility Score: inf
ROOT
ATOM      1  H   UNL     1      22.784  23.434  13.415  1.00  0.00     0.123 HD
ATOM      2  N   UNL     1      22.649  23.147  12.456  1.00  0.00    -0.300 NA
ATOM      3  C   UNL     1      21.394  23.589  10.385  1.00  0.00    -0.001 C 
ATOM      4  C   UNL     1      22.625  23.200   9.605  1.00  0.00    -0.039 A 
ATOM      5  C   UNL     1      21.725  24.072  11.801  1.00  0.00     0.110 C 
ATOM      6  C   UNL     1      23.836  22.944  10.273  1.00  0.00    -0.031 A 
ATOM      7  C   UNL     1      23.944  23.142  11.765  1.00  0.00     0.022 C 
ATOM      8  C   UNL     1      23.679  22.648   7.493  1.00  0.00     0.067 A 
ATOM      9  C   UNL     1      22.553  23.037   8.216  1.00  0.00    -0.033 A 
ATOM     10  C   UNL     1      24.964  22.563   9.536  1.00  0.00    -0.055 A 
ATOM     11  C   UNL     1      24.884  22.413   8.151  1.00  0.00    -0.036 A 
ENDROOT
BRANCH   5  12
ATOM     12  C   UNL     1      20.484  24.099  12.635  1.00  0.00     0.321 C 
ATOM     13  O   UNL     1      20.456  24.253  13.848  1.00  0.00    -0.251 OA
BRANCH  12  14
ATOM     14  O   UNL     1      19.383  23.927  11.863  1.00  0.00    -0.480 OA
ATOM     15  H   UNL     1      19.089  24.778  11.529  1.00  0.00     0.296 HD
ENDBRANCH  12  14
ENDBRANCH   5  12
BRANCH   8  16
ATOM     16  N   UNL     1      23.600  22.494   6.120  1.00  0.00    -0.217 N 
ATOM     17  N   UNL     1      23.042  21.382   5.595  1.00  0.00    -0.170 NA
ATOM     18  C   UNL     1      24.040  23.374   5.164  1.00  0.00     0.138 A 
ATOM     19  C   UNL     1      23.138  21.576   4.277  1.00  0.00     0.070 A 
ATOM     20  C   UNL     1      23.750  22.800   3.950  1.00  0.00     0.005 A 
BRANCH  18  21
ATOM     21  N   UNL     1      24.640  24.571   5.458  1.00  0.00    -0.292 N 
ATOM     22  H   UNL     1      25.078  24.641   6.365  1.00  0.00     0.173 HD
ATOM     23  C   UNL     1      24.715  25.722   4.632  1.00  0.00     0.324 C 
ATOM     24  O   UNL     1      24.238  25.812   3.505  1.00  0.00    -0.248 OA
ATOM     25  N   UNL     1      25.415  26.745   5.296  1.00  0.00    -0.306 N 
ATOM     26  H   UNL     1      25.749  26.522   6.223  1.00  0.00     0.171 HD
BRANCH  25  27
ATOM     27  C   UNL     1      25.710  28.046   4.827  1.00  0.00     0.063 A 
ATOM     28  C   UNL     1      24.768  29.061   4.883  1.00  0.00     0.083 A 
ATOM     29  C   UNL     1      26.977  28.272   4.309  1.00  0.00    -0.037 A 
ATOM     30  Cl  UNL     1      23.192  28.746   5.543  1.00  0.00    -0.080 Cl
ATOM     31  C   UNL     1      25.098  30.331   4.412  1.00  0.00     0.061 A 
ATOM     32  C   UNL     1      27.308  29.541   3.835  1.00  0.00    -0.059 A 
ATOM     33  Cl  UNL     1      23.984  31.655   4.444  1.00  0.00    -0.083 Cl
ATOM     34  C   UNL     1      26.368  30.572   3.887  1.00  0.00    -0.042 A 
ENDBRANCH  25  27
ENDBRANCH  18  21
BRANCH  19  35
ATOM     35  C   UNL     1      22.623  20.555   3.349  1.00  0.00     0.006 C 
ATOM     36  C   UNL     1      23.047  19.100   3.758  1.00  0.00    -0.054 C 
ATOM     37  C   UNL     1      23.093  20.690   1.852  1.00  0.00    -0.054 C 
ATOM     38  C   UNL     1      21.055  20.556   3.264  1.00  0.00    -0.054 C 
ENDBRANCH  19  35
ENDBRANCH   8  16
TORSDOF 6
ENDMDL
MODEL 10
REMARK VINA RESULT:    -8.369      7.145     10.294
REMARK INTER + INTRA:         -12.236
REMARK INTER:                 -11.035
REMARK INTRA:                  -1.201
REMARK UNBOUND:                -1.176
REMARK SMILES CC(C)(C)c1cc(NC(=O)Nc2cccc(Cl)c2Cl)n(-c2ccc3c(c2)C[C@@H](C(=O)O)NC3)n1
REMARK SMILES IDX 32 2 27 3 25 4 28 5 24 6 33 7 21 8 26 9 23 10 22 11 29 12
REMARK SMILES IDX 30 13 31 14 20 16 34 17 7 18 5 19 6 20 8 21 9 23 10 24 11 25
REMARK SMILES IDX 12 27 18 28 13 29 19 30 16 31 14 32 17 33 15 34 2 35 1 36
REMARK SMILES IDX 3 37 4 38
REMARK H PARENT 32 1 31 15 8 22 11 26
REMARK Flexibility Score: inf
ROOT
ATOM      1  H   UNL     1      30.379  28.025  16.618  1.00  0.00     0.123 HD
ATOM      2  N   UNL     1      29.372  28.004  16.550  1.00  0.00    -0.300 NA
ATOM      3  C   UNL     1      27.352  29.370  16.218  1.00  0.00    -0.001 C 
ATOM      4  C   UNL     1      26.739  28.209  15.476  1.00  0.00    -0.039 A 
ATOM      5  C   UNL     1      28.883  29.337  16.197  1.00  0.00     0.110 C 
ATOM      6  C   UNL     1      27.508  27.068  15.184  1.00  0.00    -0.031 A 
ATOM      7  C   UNL     1      28.977  27.026  15.528  1.00  0.00     0.022 C 
ATOM      8  C   UNL     1      24.803  27.156  14.464  1.00  0.00     0.067 A 
ATOM      9  C   UNL     1      25.383  28.238  15.123  1.00  0.00    -0.033 A 
ATOM     10  C   UNL     1      26.917  25.990  14.513  1.00  0.00    -0.055 A 
ATOM     11  C   UNL     1      25.569  26.034  14.157  1.00  0.00    -0.036 A 
ENDROOT
BRANCH   5  12
ATOM     12  C   UNL     1      29.429  30.278  17.224  1.00  0.00     0.321 C 
ATOM     13  O   UNL     1      30.317  30.010  18.020  1.00  0.00    -0.251 OA
BRANCH  12  14
ATOM     14  O   UNL     1      28.802  31.477  17.156  1.00  0.00    -0.480 OA
ATOM     15  H   UNL     1      28.871  31.923  18.003  1.00  0.00     0.296 HD
ENDBRANCH  12  14
ENDBRANCH   5  12
BRANCH   8  16
ATOM     16  N   UNL     1      23.465  27.196  14.116  1.00  0.00    -0.217 N 
ATOM     17  N   UNL     1      22.539  26.626  14.916  1.00  0.00    -0.170 NA
ATOM     18  C   UNL     1      22.921  27.773  12.996  1.00  0.00     0.138 A 
ATOM     19  C   UNL     1      21.389  26.854  14.278  1.00  0.00     0.070 A 
ATOM     20  C   UNL     1      21.565  27.565  13.076  1.00  0.00     0.005 A 
BRANCH  18  21
ATOM     21  N   UNL     1      23.664  28.412  12.038  1.00  0.00    -0.292 N 
ATOM     22  H   UNL     1      23.628  29.421  12.044  1.00  0.00     0.173 HD
ATOM     23  C   UNL     1      24.479  27.816  11.040  1.00  0.00     0.324 C 
ATOM     24  O   UNL     1      24.636  26.610  10.888  1.00  0.00    -0.248 OA
ATOM     25  N   UNL     1      25.078  28.814  10.251  1.00  0.00    -0.306 N 
ATOM     26  H   UNL     1      24.852  29.767  10.498  1.00  0.00     0.171 HD
BRANCH  25  27
ATOM     27  C   UNL     1      25.956  28.648   9.155  1.00  0.00     0.063 A 
ATOM     28  C   UNL     1      25.555  28.943   7.861  1.00  0.00     0.083 A 
ATOM     29  C   UNL     1      27.235  28.181   9.420  1.00  0.00    -0.037 A 
ATOM     30  Cl  UNL     1      23.948  29.532   7.565  1.00  0.00    -0.080 Cl
ATOM     31  C   UNL     1      26.452  28.768   6.808  1.00  0.00     0.061 A 
ATOM     32  C   UNL     1      28.132  28.003   8.367  1.00  0.00    -0.059 A 
ATOM     33  Cl  UNL     1      26.036  29.111   5.164  1.00  0.00    -0.083 Cl
ATOM     34  C   UNL     1      27.741  28.297   7.061  1.00  0.00    -0.042 A 
ENDBRANCH  25  27
ENDBRANCH  18  21
BRANCH  19  35
ATOM     35  C   UNL     1      20.123  26.372  14.856  1.00  0.00     0.006 C 
ATOM     36  C   UNL     1      19.947  26.798  16.357  1.00  0.00    -0.054 C 
ATOM     37  C   UNL     1      19.926  24.809  14.871  1.00  0.00    -0.054 C 
ATOM     38  C   UNL     1      18.866  26.914  14.088  1.00  0.00    -0.054 C 
ENDBRANCH  19  35
ENDBRANCH   8  16
TORSDOF 6
ENDMDL
MODEL 11
REMARK VINA RESULT:    -8.368      4.631      8.060
REMARK INTER + INTRA:         -12.234
REMARK INTER:                 -11.184
REMARK INTRA:                  -1.051
REMARK UNBOUND:                -1.176
REMARK SMILES CC(C)(C)c1cc(NC(=O)Nc2cccc(Cl)c2Cl)n(-c2ccc3c(c2)C[C@@H](C(=O)O)NC3)n1
REMARK SMILES IDX 32 2 27 3 25 4 28 5 24 6 33 7 21 8 26 9 23 10 22 11 29 12
REMARK SMILES IDX 30 13 31 14 20 16 34 17 7 18 5 19 6 20 8 21 9 23 10 24 11 25
REMARK SMILES IDX 12 27 18 28 13 29 19 30 16 31 14 32 17 33 15 34 2 35 1 36
REMARK SMILES IDX 3 37 4 38
REMARK H PARENT 32 1 31 15 8 22 11 26
REMARK Flexibility Score: inf
ROOT
ATOM      1  H   UNL     1      28.368  26.377  14.384  1.00  0.00     0.123 HD
ATOM      2  N   UNL     1      27.602  26.121  13.778  1.00  0.00    -0.300 NA
ATOM      3  C   UNL     1      26.300  26.783  11.796  1.00  0.00    -0.001 C 
ATOM      4  C   UNL     1      26.156  25.322  11.454  1.00  0.00    -0.039 A 
ATOM      5  C   UNL     1      27.532  27.064  12.662  1.00  0.00     0.110 C 
ATOM      6  C   UNL     1      26.850  24.348  12.195  1.00  0.00    -0.031 A 
ATOM      7  C   UNL     1      27.814  24.755  13.282  1.00  0.00     0.022 C 
ATOM      8  C   UNL     1      25.126  23.572  10.129  1.00  0.00     0.067 A 
ATOM      9  C   UNL     1      25.287  24.923  10.430  1.00  0.00    -0.033 A 
ATOM     10  C   UNL     1      26.688  22.993  11.877  1.00  0.00    -0.055 A 
ATOM     11  C   UNL     1      25.826  22.608  10.849  1.00  0.00    -0.036 A 
ENDROOT
BRANCH   5  12
ATOM     12  C   UNL     1      27.435  28.431  13.262  1.00  0.00     0.321 C 
ATOM     13  O   UNL     1      28.136  29.384  12.956  1.00  0.00    -0.251 OA
BRANCH  12  14
ATOM     14  O   UNL     1      26.459  28.472  14.202  1.00  0.00    -0.480 OA
ATOM     15  H   UNL     1      26.834  28.270  15.062  1.00  0.00     0.296 HD
ENDBRANCH  12  14
ENDBRANCH   5  12
BRANCH   8  16
ATOM     16  N   UNL     1      24.268  23.188   9.113  1.00  0.00    -0.217 N 
ATOM     17  N   UNL     1      24.734  22.471   8.069  1.00  0.00    -0.170 NA
ATOM     18  C   UNL     1      22.925  23.455   9.022  1.00  0.00     0.138 A 
ATOM     19  C   UNL     1      23.652  22.288   7.307  1.00  0.00     0.070 A 
ATOM     20  C   UNL     1      22.496  22.878   7.851  1.00  0.00     0.005 A 
BRANCH  18  21
ATOM     21  N   UNL     1      22.231  24.167   9.965  1.00  0.00    -0.292 N 
ATOM     22  H   UNL     1      21.843  25.050   9.664  1.00  0.00     0.173 HD
ATOM     23  C   UNL     1      21.994  23.803  11.317  1.00  0.00     0.324 C 
ATOM     24  O   UNL     1      22.391  22.772  11.848  1.00  0.00    -0.248 OA
ATOM     25  N   UNL     1      21.239  24.802  11.957  1.00  0.00    -0.306 N 
ATOM     26  H   UNL     1      20.985  25.597  11.388  1.00  0.00     0.171 HD
BRANCH  25  27
ATOM     27  C   UNL     1      20.791  24.830  13.298  1.00  0.00     0.063 A 
ATOM     28  C   UNL     1      21.275  25.768  14.198  1.00  0.00     0.083 A 
ATOM     29  C   UNL     1      19.849  23.888  13.682  1.00  0.00    -0.037 A 
ATOM     30  Cl  UNL     1      22.451  26.938  13.682  1.00  0.00    -0.080 Cl
ATOM     31  C   UNL     1      20.807  25.764  15.511  1.00  0.00     0.061 A 
ATOM     32  C   UNL     1      19.381  23.882  14.996  1.00  0.00    -0.059 A 
ATOM     33  Cl  UNL     1      21.355  26.896  16.699  1.00  0.00    -0.083 Cl
ATOM     34  C   UNL     1      19.860  24.820  15.911  1.00  0.00    -0.042 A 
ENDBRANCH  25  27
ENDBRANCH  18  21
BRANCH  19  35
ATOM     35  C   UNL     1      23.764  21.530   6.049  1.00  0.00     0.006 C 
ATOM     36  C   UNL     1      23.946  19.989   6.289  1.00  0.00    -0.054 C 
ATOM     37  C   UNL     1      24.970  21.923   5.115  1.00  0.00    -0.054 C 
ATOM     38  C   UNL     1      22.498  21.693   5.135  1.00  0.00    -0.054 C 
ENDBRANCH  19  35
ENDBRANCH   8  16
TORSDOF 6
ENDMDL
MODEL 12
REMARK VINA RESULT:    -8.358      5.680      9.468
REMARK INTER + INTRA:         -12.222
REMARK INTER:                 -11.238
REMARK INTRA:                  -0.984
REMARK UNBOUND:                -1.176
REMARK SMILES CC(C)(C)c1cc(NC(=O)Nc2cccc(Cl)c2Cl)n(-c2ccc3c(c2)C[C@@H](C(=O)O)NC3)n1
REMARK SMILES IDX 32 2 27 3 25 4 28 5 24 6 33 7 21 8 26 9 23 10 22 11 29 12
REMARK SMILES IDX 30 13 31 14 20 16 34 17 7 18 5 19 6 20 8 21 9 23 10 24 11 25
REMARK SMILES IDX 12 27 18 28 13 29 19 30 16 31 14 32 17 33 15 34 2 35 1 36
REMARK SMILES IDX 3 37 4 38
REMARK H PARENT 32 1 31 15 8 22 11 26
REMARK Flexibility Score: inf
ROOT
ATOM      1  H   UNL     1      18.359  24.332  13.588  1.00  0.00     0.123 HD
ATOM      2  N   UNL     1      19.143  24.966  13.547  1.00  0.00    -0.300 NA
ATOM      3  C   UNL     1      20.596  26.451  14.867  1.00  0.00    -0.001 C 
ATOM      4  C   UNL     1      21.739  26.071  13.960  1.00  0.00    -0.039 A 
ATOM      5  C   UNL     1      19.496  25.386  14.903  1.00  0.00     0.110 C 
ATOM      6  C   UNL     1      21.572  25.064  12.993  1.00  0.00    -0.031 A 
ATOM      7  C   UNL     1      20.280  24.290  12.908  1.00  0.00     0.022 C 
ATOM      8  C   UNL     1      24.008  26.433  13.184  1.00  0.00     0.067 A 
ATOM      9  C   UNL     1      22.957  26.759  14.039  1.00  0.00    -0.033 A 
ATOM     10  C   UNL     1      22.638  24.737  12.144  1.00  0.00    -0.055 A 
ATOM     11  C   UNL     1      23.850  25.422  12.239  1.00  0.00    -0.036 A 
ENDROOT
BRANCH   5  12
ATOM     12  C   UNL     1      18.254  25.954  15.512  1.00  0.00     0.321 C 
ATOM     13  O   UNL     1      17.812  25.657  16.613  1.00  0.00    -0.251 OA
BRANCH  12  14
ATOM     14  O   UNL     1      17.674  26.847  14.672  1.00  0.00    -0.480 OA
ATOM     15  H   UNL     1      16.805  27.081  15.005  1.00  0.00     0.296 HD
ENDBRANCH  12  14
ENDBRANCH   5  12
BRANCH   8  16
ATOM     16  N   UNL     1      25.209  27.114  13.273  1.00  0.00    -0.217 N 
ATOM     17  N   UNL     1      26.031  26.903  14.322  1.00  0.00    -0.170 NA
ATOM     18  C   UNL     1      25.704  28.032  12.381  1.00  0.00     0.138 A 
ATOM     19  C   UNL     1      27.066  27.711  14.078  1.00  0.00     0.070 A 
ATOM     20  C   UNL     1      26.918  28.438  12.882  1.00  0.00     0.005 A 
BRANCH  18  21
ATOM     21  N   UNL     1      25.047  28.407  11.239  1.00  0.00    -0.292 N 
ATOM     22  H   UNL     1      24.130  28.813  11.363  1.00  0.00     0.173 HD
ATOM     23  C   UNL     1      25.509  28.290   9.901  1.00  0.00     0.324 C 
ATOM     24  O   UNL     1      26.592  27.822   9.569  1.00  0.00    -0.248 OA
ATOM     25  N   UNL     1      24.539  28.790   9.014  1.00  0.00    -0.306 N 
ATOM     26  H   UNL     1      23.693  29.144   9.438  1.00  0.00     0.171 HD
BRANCH  25  27
ATOM     27  C   UNL     1      24.602  28.858   7.602  1.00  0.00     0.063 A 
ATOM     28  C   UNL     1      24.515  27.715   6.823  1.00  0.00     0.083 A 
ATOM     29  C   UNL     1      24.753  30.110   7.025  1.00  0.00    -0.037 A 
ATOM     30  Cl  UNL     1      24.321  26.163   7.579  1.00  0.00    -0.080 Cl
ATOM     31  C   UNL     1      24.580  27.824   5.435  1.00  0.00     0.061 A 
ATOM     32  C   UNL     1      24.820  30.220   5.636  1.00  0.00    -0.059 A 
ATOM     33  Cl  UNL     1      24.479  26.451   4.387  1.00  0.00    -0.083 Cl
ATOM     34  C   UNL     1      24.733  29.078   4.841  1.00  0.00    -0.042 A 
ENDBRANCH  25  27
ENDBRANCH  18  21
BRANCH  19  35
ATOM     35  C   UNL     1      28.195  27.760  15.022  1.00  0.00     0.006 C 
ATOM     36  C   UNL     1      27.725  27.843  16.518  1.00  0.00    -0.054 C 
ATOM     37  C   UNL     1      29.177  28.980  14.855  1.00  0.00    -0.054 C 
ATOM     38  C   UNL     1      29.123  26.498  14.915  1.00  0.00    -0.054 C 
ENDBRANCH  19  35
ENDBRANCH   8  16
TORSDOF 6
ENDMDL
MODEL 13
REMARK VINA RESULT:    -8.344      6.243     10.012
REMARK INTER + INTRA:         -12.202
REMARK INTER:                 -10.683
REMARK INTRA:                  -1.519
REMARK UNBOUND:                -1.176
REMARK SMILES CC(C)(C)c1cc(NC(=O)Nc2cccc(Cl)c2Cl)n(-c2ccc3c(c2)C[C@@H](C(=O)O)NC3)n1
REMARK SMILES IDX 32 2 27 3 25 4 28 5 24 6 33 7 21 8 26 9 23 10 22 11 29 12
REMARK SMILES IDX 30 13 31 14 20 16 34 17 7 18 5 19 6 20 8 21 9 23 10 24 11 25
REMARK SMILES IDX 12 27 18 28 13 29 19 30 16 31 14 32 17 33 15 34 2 35 1 36
REMARK SMILES IDX 3 37 4 38
REMARK H PARENT 32 1 31 15 8 22 11 26
REMARK Flexibility Score: inf
ROOT
ATOM      1  H   UNL     1      26.854  30.237   4.771  1.00  0.00     0.123 HD
ATOM      2  N   UNL     1      26.444  29.342   4.996  1.00  0.00    -0.300 NA
ATOM      3  C   UNL     1      24.341  28.070   5.121  1.00  0.00    -0.001 C 
ATOM      4  C   UNL     1      25.107  26.841   4.701  1.00  0.00    -0.039 A 
ATOM      5  C   UNL     1      25.019  29.367   4.669  1.00  0.00     0.110 C 
ATOM      6  C   UNL     1      26.455  26.943   4.314  1.00  0.00    -0.031 A 
ATOM      7  C   UNL     1      27.127  28.292   4.229  1.00  0.00     0.022 C 
ATOM      8  C   UNL     1      25.206  24.438   4.389  1.00  0.00     0.067 A 
ATOM      9  C   UNL     1      24.494  25.582   4.747  1.00  0.00    -0.033 A 
ATOM     10  C   UNL     1      27.158  25.789   3.947  1.00  0.00    -0.055 A 
ATOM     11  C   UNL     1      26.535  24.541   3.988  1.00  0.00    -0.036 A 
ENDROOT
BRANCH   5  12
ATOM     12  C   UNL     1      24.433  30.532   5.401  1.00  0.00     0.321 C 
ATOM     13  O   UNL     1      24.377  30.642   6.617  1.00  0.00    -0.251 OA
BRANCH  12  14
ATOM     14  O   UNL     1      23.965  31.459   4.529  1.00  0.00    -0.480 OA
ATOM     15  H   UNL     1      24.529  32.236   4.554  1.00  0.00     0.296 HD
ENDBRANCH  12  14
ENDBRANCH   5  12
BRANCH   8  16
ATOM     16  N   UNL     1      24.591  23.199   4.434  1.00  0.00    -0.217 N 
ATOM     17  N   UNL     1      24.026  22.684   3.322  1.00  0.00    -0.170 NA
ATOM     18  C   UNL     1      24.474  22.376   5.525  1.00  0.00     0.138 A 
ATOM     19  C   UNL     1      23.543  21.508   3.732  1.00  0.00     0.070 A 
ATOM     20  C   UNL     1      23.793  21.262   5.095  1.00  0.00     0.005 A 
BRANCH  18  21
ATOM     21  N   UNL     1      24.971  22.687   6.764  1.00  0.00    -0.292 N 
ATOM     22  H   UNL     1      25.942  22.459   6.926  1.00  0.00     0.173 HD
ATOM     23  C   UNL     1      24.277  23.293   7.843  1.00  0.00     0.324 C 
ATOM     24  O   UNL     1      23.099  23.632   7.821  1.00  0.00    -0.248 OA
ATOM     25  N   UNL     1      25.140  23.445   8.944  1.00  0.00    -0.306 N 
ATOM     26  H   UNL     1      26.086  23.116   8.811  1.00  0.00     0.171 HD
BRANCH  25  27
ATOM     27  C   UNL     1      24.847  24.001  10.211  1.00  0.00     0.063 A 
ATOM     28  C   UNL     1      24.912  25.369  10.427  1.00  0.00     0.083 A 
ATOM     29  C   UNL     1      24.490  23.130  11.229  1.00  0.00    -0.037 A 
ATOM     30  Cl  UNL     1      25.357  26.432   9.128  1.00  0.00    -0.080 Cl
ATOM     31  C   UNL     1      24.614  25.878  11.691  1.00  0.00     0.061 A 
ATOM     32  C   UNL     1      24.193  23.638  12.493  1.00  0.00    -0.059 A 
ATOM     33  Cl  UNL     1      24.670  27.570  12.049  1.00  0.00    -0.083 Cl
ATOM     34  C   UNL     1      24.255  25.012  12.724  1.00  0.00    -0.042 A 
ENDBRANCH  25  27
ENDBRANCH  18  21
BRANCH  19  35
ATOM     35  C   UNL     1      22.841  20.633   2.778  1.00  0.00     0.006 C 
ATOM     36  C   UNL     1      23.383  19.160   2.800  1.00  0.00    -0.054 C 
ATOM     37  C   UNL     1      22.930  21.057   1.264  1.00  0.00    -0.054 C 
ATOM     38  C   UNL     1      21.299  20.545   3.065  1.00  0.00    -0.054 C 
ENDBRANCH  19  35
ENDBRANCH   8  16
TORSDOF 6
ENDMDL
MODEL 14
REMARK VINA RESULT:    -8.307      4.609      6.556
REMARK INTER + INTRA:         -12.154
REMARK INTER:                 -11.534
REMARK INTRA:                  -0.620
REMARK UNBOUND:                -1.176
REMARK SMILES CC(C)(C)c1cc(NC(=O)Nc2cccc(Cl)c2Cl)n(-c2ccc3c(c2)C[C@@H](C(=O)O)NC3)n1
REMARK SMILES IDX 32 2 27 3 25 4 28 5 24 6 33 7 21 8 26 9 23 10 22 11 29 12
REMARK SMILES IDX 30 13 31 14 20 16 34 17 7 18 5 19 6 20 8 21 9 23 10 24 11 25
REMARK SMILES IDX 12 27 18 28 13 29 19 30 16 31 14 32 17 33 15 34 2 35 1 36
REMARK SMILES IDX 3 37 4 38
REMARK H PARENT 32 1 31 15 8 22 11 26
REMARK Flexibility Score: inf
ROOT
ATOM      1  H   UNL     1      22.492  21.225   5.496  1.00  0.00     0.123 HD
ATOM      2  N   UNL     1      23.141  21.744   6.069  1.00  0.00    -0.300 NA
ATOM      3  C   UNL     1      24.705  23.644   6.115  1.00  0.00    -0.001 C 
ATOM      4  C   UNL     1      24.318  23.875   7.554  1.00  0.00    -0.039 A 
ATOM      5  C   UNL     1      23.618  22.910   5.325  1.00  0.00     0.110 C 
ATOM      6  C   UNL     1      23.273  23.134   8.135  1.00  0.00    -0.031 A 
ATOM      7  C   UNL     1      22.468  22.165   7.304  1.00  0.00     0.022 C 
ATOM      8  C   UNL     1      24.702  24.986   9.675  1.00  0.00     0.067 A 
ATOM      9  C   UNL     1      25.035  24.790   8.336  1.00  0.00    -0.033 A 
ATOM     10  C   UNL     1      22.941  23.346   9.479  1.00  0.00    -0.055 A 
ATOM     11  C   UNL     1      23.655  24.267  10.246  1.00  0.00    -0.036 A 
ENDROOT
BRANCH   5  12
ATOM     12  C   UNL     1      24.179  22.396   4.038  1.00  0.00     0.321 C 
ATOM     13  O   UNL     1      25.174  21.693   3.937  1.00  0.00    -0.251 OA
BRANCH  12  14
ATOM     14  O   UNL     1      23.433  22.817   2.987  1.00  0.00    -0.480 OA
ATOM     15  H   UNL     1      23.923  23.475   2.490  1.00  0.00     0.296 HD
ENDBRANCH  12  14
ENDBRANCH   5  12
BRANCH   8  16
ATOM     16  N   UNL     1      25.413  25.895  10.438  1.00  0.00    -0.217 N 
ATOM     17  N   UNL     1      26.736  26.065  10.230  1.00  0.00    -0.170 NA
ATOM     18  C   UNL     1      24.922  26.694  11.439  1.00  0.00     0.138 A 
ATOM     19  C   UNL     1      27.077  26.995  11.126  1.00  0.00     0.070 A 
ATOM     20  C   UNL     1      25.988  27.425  11.907  1.00  0.00     0.005 A 
BRANCH  18  21
ATOM     21  N   UNL     1      23.608  26.696  11.828  1.00  0.00    -0.292 N 
ATOM     22  H   UNL     1      22.925  26.834  11.097  1.00  0.00     0.173 HD
ATOM     23  C   UNL     1      23.099  26.526  13.142  1.00  0.00     0.324 C 
ATOM     24  O   UNL     1      23.782  26.349  14.145  1.00  0.00    -0.248 OA
ATOM     25  N   UNL     1      21.694  26.591  13.124  1.00  0.00    -0.306 N 
ATOM     26  H   UNL     1      21.270  26.742  12.220  1.00  0.00     0.171 HD
BRANCH  25  27
ATOM     27  C   UNL     1      20.802  26.471  14.216  1.00  0.00     0.063 A 
ATOM     28  C   UNL     1      20.376  25.229  14.662  1.00  0.00     0.083 A 
ATOM     29  C   UNL     1      20.369  27.639  14.825  1.00  0.00    -0.037 A 
ATOM     30  Cl  UNL     1      20.941  23.786  13.879  1.00  0.00    -0.080 Cl
ATOM     31  C   UNL     1      19.497  25.153  15.742  1.00  0.00     0.061 A 
ATOM     32  C   UNL     1      19.489  27.564  15.905  1.00  0.00    -0.059 A 
ATOM     33  Cl  UNL     1      18.915  23.647  16.364  1.00  0.00    -0.083 Cl
ATOM     34  C   UNL     1      19.053  26.320  16.364  1.00  0.00    -0.042 A 
ENDBRANCH  25  27
ENDBRANCH  18  21
BRANCH  19  35
ATOM     35  C   UNL     1      28.474  27.456  11.205  1.00  0.00     0.006 C 
ATOM     36  C   UNL     1      28.907  28.284   9.943  1.00  0.00    -0.054 C 
ATOM     37  C   UNL     1      29.564  26.326  11.321  1.00  0.00    -0.054 C 
ATOM     38  C   UNL     1      28.733  28.375  12.452  1.00  0.00    -0.054 C 
ENDBRANCH  19  35
ENDBRANCH   8  16
TORSDOF 6
ENDMDL
MODEL 15
REMARK VINA RESULT:    -8.256      5.681      9.441
REMARK INTER + INTRA:         -12.086
REMARK INTER:                 -11.424
REMARK INTRA:                  -0.662
REMARK UNBOUND:                -1.176
REMARK SMILES CC(C)(C)c1cc(NC(=O)Nc2cccc(Cl)c2Cl)n(-c2ccc3c(c2)C[C@@H](C(=O)O)NC3)n1
REMARK SMILES IDX 32 2 27 3 25 4 28 5 24 6 33 7 21 8 26 9 23 10 22 11 29 12
REMARK SMILES IDX 30 13 31 14 20 16 34 17 7 18 5 19 6 20 8 21 9 23 10 24 11 25
REMARK SMILES IDX 12 27 18 28 13 29 19 30 16 31 14 32 17 33 15 34 2 35 1 36
REMARK SMILES IDX 3 37 4 38
REMARK H PARENT 32 1 31 15 8 22 11 26
REMARK Flexibility Score: inf
ROOT
ATOM      1  H   UNL     1      17.968  26.237  14.528  1.00  0.00     0.123 HD
ATOM      2  N   UNL     1      18.972  26.200  14.632  1.00  0.00    -0.300 NA
ATOM      3  C   UNL     1      21.070  25.428  13.602  1.00  0.00    -0.001 C 
ATOM      4  C   UNL     1      21.748  26.652  14.164  1.00  0.00    -0.039 A 
ATOM      5  C   UNL     1      19.561  25.622  13.424  1.00  0.00     0.110 C 
ATOM      6  C   UNL     1      20.991  27.652  14.802  1.00  0.00    -0.031 A 
ATOM      7  C   UNL     1      19.486  27.557  14.854  1.00  0.00     0.022 C 
ATOM      8  C   UNL     1      23.778  27.887  14.647  1.00  0.00     0.067 A 
ATOM      9  C   UNL     1      23.142  26.773  14.102  1.00  0.00    -0.033 A 
ATOM     10  C   UNL     1      21.639  28.772  15.337  1.00  0.00    -0.055 A 
ATOM     11  C   UNL     1      23.028  28.887  15.261  1.00  0.00    -0.036 A 
ENDROOT
BRANCH   5  12
ATOM     12  C   UNL     1      18.896  24.299  13.214  1.00  0.00     0.321 C 
ATOM     13  O   UNL     1      18.331  23.952  12.187  1.00  0.00    -0.251 OA
BRANCH  12  14
ATOM     14  O   UNL     1      19.000  23.529  14.325  1.00  0.00    -0.480 OA
ATOM     15  H   UNL     1      18.123  23.288  14.631  1.00  0.00     0.296 HD
ENDBRANCH  12  14
ENDBRANCH   5  12
BRANCH   8  16
ATOM     16  N   UNL     1      25.155  28.000  14.577  1.00  0.00    -0.217 N 
ATOM     17  N   UNL     1      25.867  28.293  15.686  1.00  0.00    -0.170 NA
ATOM     18  C   UNL     1      25.940  27.844  13.463  1.00  0.00     0.138 A 
ATOM     19  C   UNL     1      27.129  28.321  15.250  1.00  0.00     0.070 A 
ATOM     20  C   UNL     1      27.236  28.048  13.873  1.00  0.00     0.005 A 
BRANCH  18  21
ATOM     21  N   UNL     1      25.441  27.543  12.223  1.00  0.00    -0.292 N 
ATOM     22  H   UNL     1      24.773  26.787  12.181  1.00  0.00     0.173 HD
ATOM     23  C   UNL     1      25.756  28.174  10.991  1.00  0.00     0.324 C 
ATOM     24  O   UNL     1      26.543  29.105  10.858  1.00  0.00    -0.248 OA
ATOM     25  N   UNL     1      25.032  27.574   9.945  1.00  0.00    -0.306 N 
ATOM     26  H   UNL     1      24.420  26.815  10.211  1.00  0.00     0.171 HD
BRANCH  25  27
ATOM     27  C   UNL     1      25.055  27.901   8.569  1.00  0.00     0.063 A 
ATOM     28  C   UNL     1      25.588  27.030   7.632  1.00  0.00     0.083 A 
ATOM     29  C   UNL     1      24.523  29.125   8.190  1.00  0.00    -0.037 A 
ATOM     30  Cl  UNL     1      26.241  25.503   8.141  1.00  0.00    -0.080 Cl
ATOM     31  C   UNL     1      25.590  27.389   6.285  1.00  0.00     0.061 A 
ATOM     32  C   UNL     1      24.526  29.485   6.843  1.00  0.00    -0.059 A 
ATOM     33  Cl  UNL     1      26.235  26.364   5.049  1.00  0.00    -0.083 Cl
ATOM     34  C   UNL     1      25.059  28.617   5.890  1.00  0.00    -0.042 A 
ENDBRANCH  25  27
ENDBRANCH  18  21
BRANCH  19  35
ATOM     35  C   UNL     1      28.222  28.614  16.193  1.00  0.00     0.006 C 
ATOM     36  C   UNL     1      28.724  30.098  16.090  1.00  0.00    -0.054 C 
ATOM     37  C   UNL     1      29.527  27.750  16.020  1.00  0.00    -0.054 C 
ATOM     38  C   UNL     1      27.802  28.388  17.689  1.00  0.00    -0.054 C 
ENDBRANCH  19  35
ENDBRANCH   8  16
TORSDOF 6
ENDMDL
MODEL 16
REMARK VINA RESULT:    -8.251      5.803      8.185
REMARK INTER + INTRA:         -12.080
REMARK INTER:                 -10.773
REMARK INTRA:                  -1.307
REMARK UNBOUND:                -1.176
REMARK SMILES CC(C)(C)c1cc(NC(=O)Nc2cccc(Cl)c2Cl)n(-c2ccc3c(c2)C[C@@H](C(=O)O)NC3)n1
REMARK SMILES IDX 32 2 27 3 25 4 28 5 24 6 33 7 21 8 26 9 23 10 22 11 29 12
REMARK SMILES IDX 30 13 31 14 20 16 34 17 7 18 5 19 6 20 8 21 9 23 10 24 11 25
REMARK SMILES IDX 12 27 18 28 13 29 19 30 16 31 14 32 17 33 15 34 2 35 1 36
REMARK SMILES IDX 3 37 4 38
REMARK H PARENT 32 1 31 15 8 22 11 26
REMARK Flexibility Score: inf
ROOT
ATOM      1  H   UNL     1      23.166  26.411   5.181  1.00  0.00     0.123 HD
ATOM      2  N   UNL     1      23.895  26.724   5.805  1.00  0.00    -0.300 NA
ATOM      3  C   UNL     1      24.726  28.627   7.127  1.00  0.00    -0.001 C 
ATOM      4  C   UNL     1      25.216  27.642   8.160  1.00  0.00    -0.039 A 
ATOM      5  C   UNL     1      23.576  28.069   6.284  1.00  0.00     0.110 C 
ATOM      6  C   UNL     1      24.902  26.276   8.041  1.00  0.00    -0.031 A 
ATOM      7  C   UNL     1      24.000  25.791   6.933  1.00  0.00     0.022 C 
ATOM      8  C   UNL     1      26.514  27.167  10.152  1.00  0.00     0.067 A 
ATOM      9  C   UNL     1      26.033  28.076   9.212  1.00  0.00    -0.033 A 
ATOM     10  C   UNL     1      25.383  25.372   8.997  1.00  0.00    -0.055 A 
ATOM     11  C   UNL     1      26.188  25.817  10.046  1.00  0.00    -0.036 A 
ENDROOT
BRANCH   5  12
ATOM     12  C   UNL     1      23.373  28.919   5.070  1.00  0.00     0.321 C 
ATOM     13  O   UNL     1      23.994  29.940   4.816  1.00  0.00    -0.251 OA
BRANCH  12  14
ATOM     14  O   UNL     1      22.398  28.402   4.281  1.00  0.00    -0.480 OA
ATOM     15  H   UNL     1      21.567  28.844   4.469  1.00  0.00     0.296 HD
ENDBRANCH  12  14
ENDBRANCH   5  12
BRANCH   8  16
ATOM     16  N   UNL     1      27.316  27.605  11.190  1.00  0.00    -0.217 N 
ATOM     17  N   UNL     1      28.660  27.585  11.062  1.00  0.00    -0.170 NA
ATOM     18  C   UNL     1      26.902  28.086  12.406  1.00  0.00     0.138 A 
ATOM     19  C   UNL     1      29.093  28.066  12.230  1.00  0.00     0.070 A 
ATOM     20  C   UNL     1      28.043  28.396  13.106  1.00  0.00     0.005 A 
BRANCH  18  21
ATOM     21  N   UNL     1      25.584  28.201  12.765  1.00  0.00    -0.292 N 
ATOM     22  H   UNL     1      25.106  29.034  12.451  1.00  0.00     0.173 HD
ATOM     23  C   UNL     1      24.815  27.281  13.525  1.00  0.00     0.324 C 
ATOM     24  O   UNL     1      25.234  26.224  13.984  1.00  0.00    -0.248 OA
ATOM     25  N   UNL     1      23.502  27.763  13.675  1.00  0.00    -0.306 N 
ATOM     26  H   UNL     1      23.306  28.653  13.240  1.00  0.00     0.171 HD
BRANCH  25  27
ATOM     27  C   UNL     1      22.425  27.155  14.361  1.00  0.00     0.063 A 
ATOM     28  C   UNL     1      21.733  26.088  13.809  1.00  0.00     0.083 A 
ATOM     29  C   UNL     1      22.085  27.663  15.605  1.00  0.00    -0.037 A 
ATOM     30  Cl  UNL     1      22.188  25.473  12.249  1.00  0.00    -0.080 Cl
ATOM     31  C   UNL     1      20.677  25.515  14.517  1.00  0.00     0.061 A 
ATOM     32  C   UNL     1      21.028  27.092  16.314  1.00  0.00    -0.059 A 
ATOM     33  Cl  UNL     1      19.760  24.182  13.904  1.00  0.00    -0.083 Cl
ATOM     34  C   UNL     1      20.324  26.017  15.770  1.00  0.00    -0.042 A 
ENDBRANCH  25  27
ENDBRANCH  18  21
BRANCH  19  35
ATOM     35  C   UNL     1      30.540  28.200  12.474  1.00  0.00     0.006 C 
ATOM     36  C   UNL     1      31.260  26.811  12.600  1.00  0.00    -0.054 C 
ATOM     37  C   UNL     1      30.946  28.969  13.787  1.00  0.00    -0.054 C 
ATOM     38  C   UNL     1      31.273  28.980  11.326  1.00  0.00    -0.054 C 
ENDBRANCH  19  35
ENDBRANCH   8  16
TORSDOF 6
ENDMDL
MODEL 17
REMARK VINA RESULT:    -8.241      5.120      7.334
REMARK INTER + INTRA:         -12.066
REMARK INTER:                 -11.715
REMARK INTRA:                  -0.352
REMARK UNBOUND:                -1.176
REMARK SMILES CC(C)(C)c1cc(NC(=O)Nc2cccc(Cl)c2Cl)n(-c2ccc3c(c2)C[C@@H](C(=O)O)NC3)n1
REMARK SMILES IDX 32 2 27 3 25 4 28 5 24 6 33 7 21 8 26 9 23 10 22 11 29 12
REMARK SMILES IDX 30 13 31 14 20 16 34 17 7 18 5 19 6 20 8 21 9 23 10 24 11 25
REMARK SMILES IDX 12 27 18 28 13 29 19 30 16 31 14 32 17 33 15 34 2 35 1 36
REMARK SMILES IDX 3 37 4 38
REMARK H PARENT 32 1 31 15 8 22 11 26
REMARK Flexibility Score: inf
ROOT
ATOM      1  H   UNL     1      30.091  27.057  14.207  1.00  0.00     0.123 HD
ATOM      2  N   UNL     1      29.139  26.925  13.899  1.00  0.00    -0.300 NA
ATOM      3  C   UNL     1      27.454  25.256  13.241  1.00  0.00    -0.001 C 
ATOM      4  C   UNL     1      26.400  26.131  13.874  1.00  0.00    -0.039 A 
ATOM      5  C   UNL     1      28.846  25.494  13.833  1.00  0.00     0.110 C 
ATOM      6  C   UNL     1      26.773  27.274  14.604  1.00  0.00    -0.031 A 
ATOM      7  C   UNL     1      28.229  27.591  14.840  1.00  0.00     0.022 C 
ATOM      8  C   UNL     1      24.064  26.661  14.245  1.00  0.00     0.067 A 
ATOM      9  C   UNL     1      25.042  25.840  13.689  1.00  0.00    -0.033 A 
ATOM     10  C   UNL     1      25.781  28.088  15.166  1.00  0.00    -0.055 A 
ATOM     11  C   UNL     1      24.432  27.782  14.985  1.00  0.00    -0.036 A 
ENDROOT
BRANCH   5  12
ATOM     12  C   UNL     1      29.888  24.885  12.950  1.00  0.00     0.321 C 
ATOM     13  O   UNL     1      30.929  25.430  12.612  1.00  0.00    -0.251 OA
BRANCH  12  14
ATOM     14  O   UNL     1      29.522  23.637  12.567  1.00  0.00    -0.480 OA
ATOM     15  H   UNL     1      29.910  23.437  11.712  1.00  0.00     0.296 HD
ENDBRANCH  12  14
ENDBRANCH   5  12
BRANCH   8  16
ATOM     16  N   UNL     1      22.725  26.363  14.062  1.00  0.00    -0.217 N 
ATOM     17  N   UNL     1      21.855  26.500  15.084  1.00  0.00    -0.170 NA
ATOM     18  C   UNL     1      22.129  25.920  12.908  1.00  0.00     0.138 A 
ATOM     19  C   UNL     1      20.686  26.132  14.553  1.00  0.00     0.070 A 
ATOM     20  C   UNL     1      20.796  25.761  13.200  1.00  0.00     0.005 A 
BRANCH  18  21
ATOM     21  N   UNL     1      22.812  25.707  11.739  1.00  0.00    -0.292 N 
ATOM     22  H   UNL     1      23.417  26.455  11.432  1.00  0.00     0.173 HD
ATOM     23  C   UNL     1      22.764  24.555  10.911  1.00  0.00     0.324 C 
ATOM     24  O   UNL     1      22.085  23.558  11.131  1.00  0.00    -0.248 OA
ATOM     25  N   UNL     1      23.611  24.726   9.801  1.00  0.00    -0.306 N 
ATOM     26  H   UNL     1      24.108  25.605   9.756  1.00  0.00     0.171 HD
BRANCH  25  27
ATOM     27  C   UNL     1      23.852  23.821   8.742  1.00  0.00     0.063 A 
ATOM     28  C   UNL     1      24.012  24.266   7.438  1.00  0.00     0.083 A 
ATOM     29  C   UNL     1      23.925  22.471   9.052  1.00  0.00    -0.037 A 
ATOM     30  Cl  UNL     1      23.920  25.965   7.085  1.00  0.00    -0.080 Cl
ATOM     31  C   UNL     1      24.250  23.342   6.422  1.00  0.00     0.061 A 
ATOM     32  C   UNL     1      24.162  21.546   8.036  1.00  0.00    -0.059 A 
ATOM     33  Cl  UNL     1      24.461  23.810   4.769  1.00  0.00    -0.083 Cl
ATOM     34  C   UNL     1      24.325  21.981   6.720  1.00  0.00    -0.042 A 
ENDBRANCH  25  27
ENDBRANCH  18  21
BRANCH  19  35
ATOM     35  C   UNL     1      19.468  26.150  15.381  1.00  0.00     0.006 C 
ATOM     36  C   UNL     1      18.224  26.715  14.608  1.00  0.00    -0.054 C 
ATOM     37  C   UNL     1      19.541  27.023  16.690  1.00  0.00    -0.054 C 
ATOM     38  C   UNL     1      19.066  24.721  15.890  1.00  0.00    -0.054 C 
ENDBRANCH  19  35
ENDBRANCH   8  16
TORSDOF 6
ENDMDL
MODEL 18
REMARK VINA RESULT:    -8.212      5.334      7.785
REMARK INTER + INTRA:         -12.029
REMARK INTER:                 -10.665
REMARK INTRA:                  -1.363
REMARK UNBOUND:                -1.176
REMARK SMILES CC(C)(C)c1cc(NC(=O)Nc2cccc(Cl)c2Cl)n(-c2ccc3c(c2)C[C@@H](C(=O)O)NC3)n1
REMARK SMILES IDX 32 2 27 3 25 4 28 5 24 6 33 7 21 8 26 9 23 10 22 11 29 12
REMARK SMILES IDX 30 13 31 14 20 16 34 17 7 18 5 19 6 20 8 21 9 23 10 24 11 25
REMARK SMILES IDX 12 27 18 28 13 29 19 30 16 31 14 32 17 33 15 34 2 35 1 36
REMARK SMILES IDX 3 37 4 38
REMARK H PARENT 32 1 31 15 8 22 11 26
REMARK Flexibility Score: inf
ROOT
ATOM      1  H   UNL     1      22.776  24.994   6.396  1.00  0.00     0.123 HD
ATOM      2  N   UNL     1      23.142  25.347   7.269  1.00  0.00    -0.300 NA
ATOM      3  C   UNL     1      23.899  24.726   9.527  1.00  0.00    -0.001 C 
ATOM      4  C   UNL     1      24.919  25.833   9.445  1.00  0.00    -0.039 A 
ATOM      5  C   UNL     1      23.467  24.222   8.146  1.00  0.00     0.110 C 
ATOM      6  C   UNL     1      25.099  26.544   8.245  1.00  0.00    -0.031 A 
ATOM      7  C   UNL     1      24.341  26.150   7.001  1.00  0.00     0.022 C 
ATOM      8  C   UNL     1      26.575  27.240  10.520  1.00  0.00     0.067 A 
ATOM      9  C   UNL     1      25.653  26.197  10.582  1.00  0.00    -0.033 A 
ATOM     10  C   UNL     1      26.036  27.584   8.192  1.00  0.00    -0.055 A 
ATOM     11  C   UNL     1      26.768  27.931   9.327  1.00  0.00    -0.036 A 
ENDROOT
BRANCH   5  12
ATOM     12  C   UNL     1      22.222  23.401   8.267  1.00  0.00     0.321 C 
ATOM     13  O   UNL     1      21.746  22.712   7.377  1.00  0.00    -0.251 OA
BRANCH  12  14
ATOM     14  O   UNL     1      21.685  23.525   9.506  1.00  0.00    -0.480 OA
ATOM     15  H   UNL     1      21.250  24.376   9.583  1.00  0.00     0.296 HD
ENDBRANCH  12  14
ENDBRANCH   5  12
BRANCH   8  16
ATOM     16  N   UNL     1      27.299  27.590  11.647  1.00  0.00    -0.217 N 
ATOM     17  N   UNL     1      28.648  27.567  11.619  1.00  0.00    -0.170 NA
ATOM     18  C   UNL     1      26.796  27.980  12.862  1.00  0.00     0.138 A 
ATOM     19  C   UNL     1      28.994  27.953  12.849  1.00  0.00     0.070 A 
ATOM     20  C   UNL     1      27.882  28.225  13.668  1.00  0.00     0.005 A 
BRANCH  18  21
ATOM     21  N   UNL     1      25.455  28.079  13.128  1.00  0.00    -0.292 N 
ATOM     22  H   UNL     1      24.974  28.867  12.718  1.00  0.00     0.173 HD
ATOM     23  C   UNL     1      24.666  27.199  13.915  1.00  0.00     0.324 C 
ATOM     24  O   UNL     1      25.085  26.198  14.485  1.00  0.00    -0.248 OA
ATOM     25  N   UNL     1      23.333  27.647  13.944  1.00  0.00    -0.306 N 
ATOM     26  H   UNL     1      23.139  28.491  13.424  1.00  0.00     0.171 HD
BRANCH  25  27
ATOM     27  C   UNL     1      22.231  27.061  14.611  1.00  0.00     0.063 A 
ATOM     28  C   UNL     1      21.551  25.984  14.064  1.00  0.00     0.083 A 
ATOM     29  C   UNL     1      21.856  27.601  15.832  1.00  0.00    -0.037 A 
ATOM     30  Cl  UNL     1      22.050  25.329  12.535  1.00  0.00    -0.080 Cl
ATOM     31  C   UNL     1      20.471  25.434  14.753  1.00  0.00     0.061 A 
ATOM     32  C   UNL     1      20.775  27.052  16.521  1.00  0.00    -0.059 A 
ATOM     33  Cl  UNL     1      19.566  24.090  14.145  1.00  0.00    -0.083 Cl
ATOM     34  C   UNL     1      20.082  25.968  15.982  1.00  0.00    -0.042 A 
ENDBRANCH  25  27
ENDBRANCH  18  21
BRANCH  19  35
ATOM     35  C   UNL     1      30.418  28.055  13.210  1.00  0.00     0.006 C 
ATOM     36  C   UNL     1      31.059  26.657  13.529  1.00  0.00    -0.054 C 
ATOM     37  C   UNL     1      30.744  28.930  14.479  1.00  0.00    -0.054 C 
ATOM     38  C   UNL     1      31.285  28.693  12.067  1.00  0.00    -0.054 C 
ENDBRANCH  19  35
ENDBRANCH   8  16
TORSDOF 6
ENDMDL
MODEL 19
REMARK VINA RESULT:    -8.210      5.361      7.647
REMARK INTER + INTRA:         -12.025
REMARK INTER:                 -11.191
REMARK INTRA:                  -0.834
REMARK UNBOUND:                -1.176
REMARK SMILES CC(C)(C)c1cc(NC(=O)Nc2cccc(Cl)c2Cl)n(-c2ccc3c(c2)C[C@@H](C(=O)O)NC3)n1
REMARK SMILES IDX 32 2 27 3 25 4 28 5 24 6 33 7 21 8 26 9 23 10 22 11 29 12
REMARK SMILES IDX 30 13 31 14 20 16 34 17 7 18 5 19 6 20 8 21 9 23 10 24 11 25
REMARK SMILES IDX 12 27 18 28 13 29 19 30 16 31 14 32 17 33 15 34 2 35 1 36
REMARK SMILES IDX 3 37 4 38
REMARK H PARENT 32 1 31 15 8 22 11 26
REMARK Flexibility Score: inf
ROOT
ATOM      1  H   UNL     1      26.217  29.937   3.639  1.00  0.00     0.123 HD
ATOM      2  N   UNL     1      25.997  29.456   4.499  1.00  0.00    -0.300 NA
ATOM      3  C   UNL     1      24.199  28.898   6.085  1.00  0.00    -0.001 C 
ATOM      4  C   UNL     1      24.875  27.571   6.322  1.00  0.00    -0.039 A 
ATOM      5  C   UNL     1      24.552  29.502   4.723  1.00  0.00     0.110 C 
ATOM      6  C   UNL     1      25.984  27.192   5.544  1.00  0.00    -0.031 A 
ATOM      7  C   UNL     1      26.456  28.064   4.406  1.00  0.00     0.022 C 
ATOM      8  C   UNL     1      25.076  25.520   7.598  1.00  0.00     0.067 A 
ATOM      9  C   UNL     1      24.436  26.734   7.355  1.00  0.00    -0.033 A 
ATOM     10  C   UNL     1      26.614  25.965   5.790  1.00  0.00    -0.055 A 
ATOM     11  C   UNL     1      26.162  25.134   6.816  1.00  0.00    -0.036 A 
ENDROOT
BRANCH   5  12
ATOM     12  C   UNL     1      24.160  30.946   4.686  1.00  0.00     0.321 C 
ATOM     13  O   UNL     1      23.654  31.511   3.728  1.00  0.00    -0.251 OA
BRANCH  12  14
ATOM     14  O   UNL     1      24.445  31.550   5.865  1.00  0.00    -0.480 OA
ATOM     15  H   UNL     1      23.921  32.349   5.951  1.00  0.00     0.296 HD
ENDBRANCH  12  14
ENDBRANCH   5  12
BRANCH   8  16
ATOM     16  N   UNL     1      24.633  24.697   8.618  1.00  0.00    -0.217 N 
ATOM     17  N   UNL     1      24.421  25.202   9.852  1.00  0.00    -0.170 NA
ATOM     18  C   UNL     1      24.364  23.354   8.537  1.00  0.00     0.138 A 
ATOM     19  C   UNL     1      24.010  24.146  10.558  1.00  0.00     0.070 A 
ATOM     20  C   UNL     1      23.954  22.967   9.790  1.00  0.00     0.005 A 
BRANCH  18  21
ATOM     21  N   UNL     1      24.504  22.624   7.386  1.00  0.00    -0.292 N 
ATOM     22  H   UNL     1      25.451  22.435   7.089  1.00  0.00     0.173 HD
ATOM     23  C   UNL     1      23.470  22.102   6.566  1.00  0.00     0.324 C 
ATOM     24  O   UNL     1      22.269  22.236   6.776  1.00  0.00    -0.248 OA
ATOM     25  N   UNL     1      24.026  21.409   5.476  1.00  0.00    -0.306 N 
ATOM     26  H   UNL     1      25.035  21.384   5.437  1.00  0.00     0.171 HD
BRANCH  25  27
ATOM     27  C   UNL     1      23.347  20.743   4.428  1.00  0.00     0.063 A 
ATOM     28  C   UNL     1      23.278  19.359   4.382  1.00  0.00     0.083 A 
ATOM     29  C   UNL     1      22.751  21.524   3.449  1.00  0.00    -0.037 A 
ATOM     30  Cl  UNL     1      24.032  18.412   5.628  1.00  0.00    -0.080 Cl
ATOM     31  C   UNL     1      22.598  18.741   3.334  1.00  0.00     0.061 A 
ATOM     32  C   UNL     1      22.072  20.906   2.399  1.00  0.00    -0.059 A 
ATOM     33  Cl  UNL     1      22.463  17.021   3.198  1.00  0.00    -0.083 Cl
ATOM     34  C   UNL     1      21.995  19.514   2.342  1.00  0.00    -0.042 A 
ENDBRANCH  25  27
ENDBRANCH  18  21
BRANCH  19  35
ATOM     35  C   UNL     1      23.672  24.304  11.982  1.00  0.00     0.006 C 
ATOM     36  C   UNL     1      24.885  24.821  12.835  1.00  0.00    -0.054 C 
ATOM     37  C   UNL     1      23.204  22.997  12.726  1.00  0.00    -0.054 C 
ATOM     38  C   UNL     1      22.499  25.322  12.213  1.00  0.00    -0.054 C 
ENDBRANCH  19  35
ENDBRANCH   8  16
TORSDOF 6
ENDMDL
