REMARK  Name = /tmp/59BH6PR
REMARK                            x       y       z     vdW  Elec       q    Type
REMARK                         _______ _______ _______ _____ _____    ______ ____
ROOT
ATOM      1  H   LIG    1       -3.443   5.184  -3.215  0.00  0.00    +0.156 HD
ATOM      2  N   LIG    1       -4.138   5.720  -2.705  0.00  0.00    -0.269 N 
ATOM      3  C   LIG    1       -4.783   5.007  -1.697  0.00  0.00    +0.308 C 
ATOM      4  N   LIG    1       -4.576   3.650  -1.840  0.00  0.00    -0.269 N 
ATOM      5  H   LIG    1       -4.201   3.325  -2.720  0.00  0.00    +0.156 HD
ATOM      6  O   LIG    1       -5.427   5.563  -0.816  0.00  0.00    -0.252 OA
ENDROOT
BRANCH   2   7
ATOM      7  C   LIG    1       -4.148   7.120  -2.853  0.00  0.00    +0.037 A 
ATOM      8  C   LIG    1       -4.911   7.649  -3.926  0.00  0.00    +0.026 A 
ATOM      9  C   LIG    1       -4.918   9.022  -4.210  0.00  0.00    +0.037 A 
ATOM     10  C   LIG    1       -4.169   9.820  -3.380  0.00  0.00    +0.115 A 
ATOM     11  C   LIG    1       -3.465   9.328  -2.321  0.00  0.00    +0.117 A 
ATOM     12  O   LIG    1       -2.913  10.274  -1.750  0.00  0.00    -0.255 OA
ATOM     13  C   LIG    1       -3.244  11.280  -2.441  0.00  0.00    +0.498 C 
ATOM     14  F   LIG    1       -2.124  11.855  -2.911  0.00  0.00    -0.147 F 
ATOM     15  F   LIG    1       -3.859  12.164  -1.637  0.00  0.00    -0.147 F 
ATOM     16  O   LIG    1       -4.006  11.045  -3.421  0.00  0.00    -0.255 OA
ATOM     17  C   LIG    1       -3.433   7.988  -2.009  0.00  0.00    +0.059 A 
ENDBRANCH   2   7
BRANCH   4  18
ATOM     18  C   LIG    1       -5.030   2.623  -0.983  0.00  0.00    +0.035 A 
ATOM     19  C   LIG    1       -5.948   2.983   0.008  0.00  0.00    +0.025 A 
ATOM     20  C   LIG    1       -6.426   2.032   0.912  0.00  0.00    +0.022 A 
ATOM     21  C   LIG    1       -6.006   0.703   0.826  0.00  0.00    +0.053 A 
ATOM     22  C   LIG    1       -5.103   0.314  -0.170  0.00  0.00    +0.075 A 
ATOM     23 CL   LIG    1       -6.641  -0.408   1.981  0.00  0.00    -0.083 Cl
ATOM     24  C   LIG    1       -4.623   1.289  -1.074  0.00  0.00    +0.037 A 
BRANCH  22  25
ATOM     25  C   LIG    1       -4.636  -1.115  -0.285  0.00  0.00    +0.419 C 
ATOM     26  F   LIG    1       -5.389  -1.856  -1.140  0.00  0.00    -0.166 F 
ATOM     27  F   LIG    1       -4.630  -1.769   0.907  0.00  0.00    -0.166 F 
ATOM     28  F   LIG    1       -3.357  -1.211  -0.755  0.00  0.00    -0.166 F 
ENDBRANCH  22  25
ENDBRANCH   4  18
TORSDOF 3                                   
