MODEL 1
REMARK VINA RESULT:    -7.504      0.000      0.000
REMARK INTER + INTRA:          -8.737
REMARK INTER:                  -8.363
REMARK INTRA:                  -0.374
REMARK UNBOUND:                 0.083
REMARK  Name = /tmp/59BH6PR
REMARK                            x       y       z     vdW  Elec       q    Type
REMARK                         _______ _______ _______ _____ _____    ______ ____
ROOT
ATOM      1  H   LIG    1       10.193   9.224  -0.277  0.00  0.00    +0.156 HD
ATOM      2  N   LIG    1       11.049   9.090  -0.806  0.00  0.00    -0.269 N 
ATOM      3  C   LIG    1       12.004   8.310  -0.158  0.00  0.00    +0.308 C 
ATOM      4  N   LIG    1       11.711   8.180   1.184  0.00  0.00    -0.269 N 
ATOM      5  H   LIG    1       11.016   8.802   1.572  0.00  0.00    +0.156 HD
ATOM      6  O   LIG    1       12.956   7.818  -0.753  0.00  0.00    -0.252 OA
ENDROOT
BRANCH   2   7
ATOM      7  C   LIG    1       11.052   9.419  -2.175  0.00  0.00    +0.037 A 
ATOM      8  C   LIG    1       11.838  10.532  -2.567  0.00  0.00    +0.026 A 
ATOM      9  C   LIG    1       11.842  10.993  -3.892  0.00  0.00    +0.037 A 
ATOM     10  C   LIG    1       11.064  10.294  -4.783  0.00  0.00    +0.115 A 
ATOM     11  C   LIG    1       10.337   9.197  -4.424  0.00  0.00    +0.117 A 
ATOM     12  O   LIG    1        9.762   8.770  -5.431  0.00  0.00    -0.255 OA
ATOM     13  C   LIG    1       10.103   9.578  -6.342  0.00  0.00    +0.498 C 
ATOM     14  F   LIG    1        8.991  10.148  -6.838  0.00  0.00    -0.147 F 
ATOM     15  F   LIG    1       10.688   8.881  -7.330  0.00  0.00    -0.147 F 
ATOM     16  O   LIG    1       10.893  10.499  -5.990  0.00  0.00    -0.255 OA
ATOM     17  C   LIG    1       10.307   8.714  -3.136  0.00  0.00    +0.059 A 
ENDBRANCH   2   7
BRANCH   4  18
ATOM     18  C   LIG    1       12.421   7.424   2.143  0.00  0.00    +0.035 A 
ATOM     19  C   LIG    1       12.867   8.102   3.281  0.00  0.00    +0.025 A 
ATOM     20  C   LIG    1       13.599   7.432   4.265  0.00  0.00    +0.022 A 
ATOM     21  C   LIG    1       13.877   6.070   4.132  0.00  0.00    +0.053 A 
ATOM     22  C   LIG    1       13.424   5.365   3.012  0.00  0.00    +0.075 A 
ATOM     23 CL   LIG    1       14.787   5.319   5.389  0.00  0.00    -0.083 Cl
ATOM     24  C   LIG    1       12.690   6.058   2.022  0.00  0.00    +0.037 A 
BRANCH  22  25
ATOM     25  C   LIG    1       13.710   3.895   2.847  0.00  0.00    +0.419 C 
ATOM     26  F   LIG    1       15.000   3.636   2.506  0.00  0.00    -0.166 F 
ATOM     27  F   LIG    1       12.925   3.303   1.908  0.00  0.00    -0.166 F 
ATOM     28  F   LIG    1       13.492   3.187   3.995  0.00  0.00    -0.166 F 
ENDBRANCH  22  25
ENDBRANCH   4  18
TORSDOF 3                                   
ENDMDL
MODEL 2
REMARK VINA RESULT:    -7.405      3.342      3.799
REMARK INTER + INTRA:          -8.621
REMARK INTER:                  -8.113
REMARK INTRA:                  -0.508
REMARK UNBOUND:                 0.083
REMARK  Name = /tmp/59BH6PR
REMARK                            x       y       z     vdW  Elec       q    Type
REMARK                         _______ _______ _______ _____ _____    ______ ____
ROOT
ATOM      1  H   LIG    1       11.413   6.996  -2.181  0.00  0.00    +0.156 HD
ATOM      2  N   LIG    1       11.226   7.980  -2.347  0.00  0.00    -0.269 N 
ATOM      3  C   LIG    1       11.490   8.804  -1.257  0.00  0.00    +0.308 C 
ATOM      4  N   LIG    1       11.623   8.067  -0.098  0.00  0.00    -0.269 N 
ATOM      5  H   LIG    1       11.312   7.106  -0.118  0.00  0.00    +0.156 HD
ATOM      6  O   LIG    1       11.593  10.020  -1.370  0.00  0.00    -0.252 OA
ENDROOT
BRANCH   2   7
ATOM      7  C   LIG    1       11.034   8.412  -3.674  0.00  0.00    +0.037 A 
ATOM      8  C   LIG    1       12.186   8.835  -4.385  0.00  0.00    +0.026 A 
ATOM      9  C   LIG    1       12.092   9.362  -5.681  0.00  0.00    +0.037 A 
ATOM     10  C   LIG    1       10.832   9.422  -6.225  0.00  0.00    +0.115 A 
ATOM     11  C   LIG    1        9.723   8.979  -5.566  0.00  0.00    +0.117 A 
ATOM     12  O   LIG    1        8.746   9.136  -6.305  0.00  0.00    -0.255 OA
ATOM     13  C   LIG    1        9.233   9.669  -7.344  0.00  0.00    +0.498 C 
ATOM     14  F   LIG    1        8.645  10.864  -7.521  0.00  0.00    -0.147 F 
ATOM     15  F   LIG    1        8.928   8.896  -8.400  0.00  0.00    -0.147 F 
ATOM     16  O   LIG    1       10.484   9.844  -7.334  0.00  0.00    -0.255 OA
ATOM     17  C   LIG    1        9.774   8.455  -4.294  0.00  0.00    +0.059 A 
ENDBRANCH   2   7
BRANCH   4  18
ATOM     18  C   LIG    1       11.941   8.552   1.189  0.00  0.00    +0.035 A 
ATOM     19  C   LIG    1       13.297   8.619   1.525  0.00  0.00    +0.025 A 
ATOM     20  C   LIG    1       13.695   9.063   2.788  0.00  0.00    +0.022 A 
ATOM     21  C   LIG    1       12.743   9.464   3.727  0.00  0.00    +0.053 A 
ATOM     22  C   LIG    1       11.381   9.426   3.408  0.00  0.00    +0.075 A 
ATOM     23 CL   LIG    1       13.316   9.996   5.263  0.00  0.00    -0.083 Cl
ATOM     24  C   LIG    1       10.993   8.968   2.128  0.00  0.00    +0.037 A 
BRANCH  22  25
ATOM     25  C   LIG    1       10.334   9.855   4.404  0.00  0.00    +0.419 C 
ATOM     26  F   LIG    1       10.383  11.183   4.691  0.00  0.00    -0.166 F 
ATOM     27  F   LIG    1       10.421   9.190   5.586  0.00  0.00    -0.166 F 
ATOM     28  F   LIG    1        9.063   9.630   3.957  0.00  0.00    -0.166 F 
ENDBRANCH  22  25
ENDBRANCH   4  18
TORSDOF 3                                   
ENDMDL
MODEL 3
REMARK VINA RESULT:    -7.362      3.278      3.730
REMARK INTER + INTRA:          -8.571
REMARK INTER:                  -8.029
REMARK INTRA:                  -0.541
REMARK UNBOUND:                 0.083
REMARK  Name = /tmp/59BH6PR
REMARK                            x       y       z     vdW  Elec       q    Type
REMARK                         _______ _______ _______ _____ _____    ______ ____
ROOT
ATOM      1  H   LIG    1       11.877   7.291  -2.119  0.00  0.00    +0.156 HD
ATOM      2  N   LIG    1       11.326   8.124  -2.302  0.00  0.00    -0.269 N 
ATOM      3  C   LIG    1       11.115   8.927  -1.183  0.00  0.00    +0.308 C 
ATOM      4  N   LIG    1       11.411   8.245  -0.021  0.00  0.00    -0.269 N 
ATOM      5  H   LIG    1       11.521   7.243  -0.082  0.00  0.00    +0.156 HD
ATOM      6  O   LIG    1       10.727  10.085  -1.277  0.00  0.00    -0.252 OA
ENDROOT
BRANCH   2   7
ATOM      7  C   LIG    1       11.118   8.512  -3.639  0.00  0.00    +0.037 A 
ATOM      8  C   LIG    1       12.256   8.945  -4.367  0.00  0.00    +0.026 A 
ATOM      9  C   LIG    1       12.143   9.431  -5.678  0.00  0.00    +0.037 A 
ATOM     10  C   LIG    1       10.880   9.442  -6.217  0.00  0.00    +0.115 A 
ATOM     11  C   LIG    1        9.785   8.989  -5.541  0.00  0.00    +0.117 A 
ATOM     12  O   LIG    1        8.802   9.099  -6.280  0.00  0.00    -0.255 OA
ATOM     13  C   LIG    1        9.271   9.614  -7.336  0.00  0.00    +0.498 C 
ATOM     14  F   LIG    1        8.651  10.787  -7.545  0.00  0.00    -0.147 F 
ATOM     15  F   LIG    1        8.983   8.802  -8.368  0.00  0.00    -0.147 F 
ATOM     16  O   LIG    1       10.517   9.822  -7.336  0.00  0.00    -0.255 OA
ATOM     17  C   LIG    1        9.855   8.504  -4.255  0.00  0.00    +0.059 A 
ENDBRANCH   2   7
BRANCH   4  18
ATOM     18  C   LIG    1       11.366   8.748   1.298  0.00  0.00    +0.035 A 
ATOM     19  C   LIG    1       10.101   8.961   1.854  0.00  0.00    +0.025 A 
ATOM     20  C   LIG    1        9.971   9.481   3.144  0.00  0.00    +0.022 A 
ATOM     21  C   LIG    1       11.104   9.777   3.903  0.00  0.00    +0.053 A 
ATOM     22  C   LIG    1       12.381   9.554   3.377  0.00  0.00    +0.075 A 
ATOM     23 CL   LIG    1       10.857  10.417   5.484  0.00  0.00    -0.083 Cl
ATOM     24  C   LIG    1       12.497   9.033   2.067  0.00  0.00    +0.037 A 
BRANCH  22  25
ATOM     25  C   LIG    1       13.620   9.863   4.177  0.00  0.00    +0.419 C 
ATOM     26  F   LIG    1       13.716   9.132   5.319  0.00  0.00    -0.166 F 
ATOM     27  F   LIG    1       13.707  11.172   4.536  0.00  0.00    -0.166 F 
ATOM     28  F   LIG    1       14.769   9.603   3.485  0.00  0.00    -0.166 F 
ENDBRANCH  22  25
ENDBRANCH   4  18
TORSDOF 3                                   
ENDMDL
MODEL 4
REMARK VINA RESULT:    -7.279     22.817     23.786
REMARK INTER + INTRA:          -8.472
REMARK INTER:                  -8.121
REMARK INTRA:                  -0.351
REMARK UNBOUND:                 0.083
REMARK  Name = /tmp/59BH6PR
REMARK                            x       y       z     vdW  Elec       q    Type
REMARK                         _______ _______ _______ _____ _____    ______ ____
ROOT
ATOM      1  H   LIG    1       -6.830  -7.251  -0.893  0.00  0.00    +0.156 HD
ATOM      2  N   LIG    1       -6.907  -6.743  -0.017  0.00  0.00    -0.269 N 
ATOM      3  C   LIG    1       -6.607  -7.503   1.111  0.00  0.00    +0.308 C 
ATOM      4  N   LIG    1       -6.603  -8.851   0.815  0.00  0.00    -0.269 N 
ATOM      5  H   LIG    1       -7.010  -9.136  -0.064  0.00  0.00    +0.156 HD
ATOM      6  O   LIG    1       -6.374  -6.989   2.199  0.00  0.00    -0.252 OA
ENDROOT
BRANCH   2   7
ATOM      7  C   LIG    1       -6.993  -5.338  -0.059  0.00  0.00    +0.037 A 
ATOM      8  C   LIG    1       -8.258  -4.781  -0.381  0.00  0.00    +0.026 A 
ATOM      9  C   LIG    1       -8.429  -3.398  -0.531  0.00  0.00    +0.037 A 
ATOM     10  C   LIG    1       -7.315  -2.620  -0.328  0.00  0.00    +0.115 A 
ATOM     11  C   LIG    1       -6.105  -3.142   0.022  0.00  0.00    +0.117 A 
ATOM     12  O   LIG    1       -5.306  -2.209   0.157  0.00  0.00    -0.255 OA
ATOM     13  C   LIG    1       -5.989  -1.182  -0.121  0.00  0.00    +0.498 C 
ATOM     14  F   LIG    1       -5.416  -0.563  -1.167  0.00  0.00    -0.147 F 
ATOM     15  F   LIG    1       -5.946  -0.346   0.931  0.00  0.00    -0.147 F 
ATOM     16  O   LIG    1       -7.202  -1.391  -0.406  0.00  0.00    -0.255 OA
ATOM     17  C   LIG    1       -5.896  -4.493   0.179  0.00  0.00    +0.059 A 
ENDBRANCH   2   7
BRANCH   4  18
ATOM     18  C   LIG    1       -6.293  -9.915   1.689  0.00  0.00    +0.035 A 
ATOM     19  C   LIG    1       -7.352 -10.468   2.417  0.00  0.00    +0.025 A 
ATOM     20  C   LIG    1       -7.125 -11.507   3.322  0.00  0.00    +0.022 A 
ATOM     21  C   LIG    1       -5.839 -12.021   3.498  0.00  0.00    +0.053 A 
ATOM     22  C   LIG    1       -4.767 -11.499   2.767  0.00  0.00    +0.075 A 
ATOM     23 CL   LIG    1       -5.643 -13.301   4.636  0.00  0.00    -0.083 Cl
ATOM     24  C   LIG    1       -5.011 -10.443   1.859  0.00  0.00    +0.037 A 
BRANCH  22  25
ATOM     25  C   LIG    1       -3.369 -12.038   2.937  0.00  0.00    +0.419 C 
ATOM     26  F   LIG    1       -3.161 -13.205   2.271  0.00  0.00    -0.166 F 
ATOM     27  F   LIG    1       -3.041 -12.261   4.238  0.00  0.00    -0.166 F 
ATOM     28  F   LIG    1       -2.416 -11.180   2.467  0.00  0.00    -0.166 F 
ENDBRANCH  22  25
ENDBRANCH   4  18
TORSDOF 3                                   
ENDMDL
MODEL 5
REMARK VINA RESULT:    -7.226     22.213     23.177
REMARK INTER + INTRA:          -8.410
REMARK INTER:                  -8.106
REMARK INTRA:                  -0.304
REMARK UNBOUND:                 0.083
REMARK  Name = /tmp/59BH6PR
REMARK                            x       y       z     vdW  Elec       q    Type
REMARK                         _______ _______ _______ _____ _____    ______ ____
ROOT
ATOM      1  H   LIG    1       -6.389  -6.403  -0.865  0.00  0.00    +0.156 HD
ATOM      2  N   LIG    1       -6.340  -5.919   0.026  0.00  0.00    -0.269 N 
ATOM      3  C   LIG    1       -6.236  -6.762   1.130  0.00  0.00    +0.308 C 
ATOM      4  N   LIG    1       -6.562  -8.060   0.795  0.00  0.00    -0.269 N 
ATOM      5  H   LIG    1       -7.026  -8.211  -0.089  0.00  0.00    +0.156 HD
ATOM      6  O   LIG    1       -5.884  -6.354   2.230  0.00  0.00    -0.252 OA
ENDROOT
BRANCH   2   7
ATOM      7  C   LIG    1       -6.080  -4.535   0.025  0.00  0.00    +0.037 A 
ATOM      8  C   LIG    1       -7.154  -3.679  -0.331  0.00  0.00    +0.026 A 
ATOM      9  C   LIG    1       -6.976  -2.293  -0.444  0.00  0.00    +0.037 A 
ATOM     10  C   LIG    1       -5.717  -1.815  -0.171  0.00  0.00    +0.115 A 
ATOM     11  C   LIG    1       -4.688  -2.625   0.213  0.00  0.00    +0.117 A 
ATOM     12  O   LIG    1       -3.695  -1.919   0.411  0.00  0.00    -0.255 OA
ATOM     13  C   LIG    1       -4.093  -0.750   0.138  0.00  0.00    +0.498 C 
ATOM     14  F   LIG    1       -3.336  -0.269  -0.863  0.00  0.00    -0.147 F 
ATOM     15  F   LIG    1       -3.898   0.028   1.216  0.00  0.00    -0.147 F 
ATOM     16  O   LIG    1       -5.305  -0.650  -0.204  0.00  0.00    -0.255 OA
ATOM     17  C   LIG    1       -4.823  -3.989   0.336  0.00  0.00    +0.059 A 
ENDBRANCH   2   7
BRANCH   4  18
ATOM     18  C   LIG    1       -6.522  -9.194   1.636  0.00  0.00    +0.035 A 
ATOM     19  C   LIG    1       -7.707  -9.536   2.296  0.00  0.00    +0.025 A 
ATOM     20  C   LIG    1       -7.744 -10.628   3.165  0.00  0.00    +0.022 A 
ATOM     21  C   LIG    1       -6.603 -11.405   3.372  0.00  0.00    +0.053 A 
ATOM     22  C   LIG    1       -5.412 -11.096   2.708  0.00  0.00    +0.075 A 
ATOM     23 CL   LIG    1       -6.733 -12.734   4.463  0.00  0.00    -0.083 Cl
ATOM     24  C   LIG    1       -5.387  -9.983   1.836  0.00  0.00    +0.037 A 
BRANCH  22  25
ATOM     25  C   LIG    1       -4.166 -11.920   2.913  0.00  0.00    +0.419 C 
ATOM     26  F   LIG    1       -4.158 -13.067   2.184  0.00  0.00    -0.166 F 
ATOM     27  F   LIG    1       -3.972 -12.274   4.211  0.00  0.00    -0.166 F 
ATOM     28  F   LIG    1       -3.031 -11.253   2.548  0.00  0.00    -0.166 F 
ENDBRANCH  22  25
ENDBRANCH   4  18
TORSDOF 3                                   
ENDMDL
