REMARK SMILES O=C(Nc1ccc(Oc2ccncc2)cc1)Nc1cccc(C(F)(F)F)c1
REMARK SMILES IDX 17 3 2 4 1 5 3 6 18 7 27 8 19 9 22 10 20 11 21 12 23 13
REMARK SMILES IDX 24 14 25 15 26 16 4 17 5 18 16 19 6 20 15 21 7 22 8 23 9 24
REMARK SMILES IDX 10 25 14 26 11 27 13 28 12 29
REMARK H PARENT 17 1 3 2
REMARK Flexibility Score: inf
ROOT
ATOM      1  H   UNL     1      46.732  26.972  44.431  1.00  0.00     0.171 HD
ATOM      2  H   UNL     1      47.148  24.916  44.636  1.00  0.00     0.171 HD
ATOM      3  N   UNL     1      47.197  27.050  43.538  1.00  0.00    -0.308 N 
ATOM      4  C   UNL     1      47.724  25.943  42.961  1.00  0.00     0.323 C 
ATOM      5  O   UNL     1      48.263  25.933  41.816  1.00  0.00    -0.248 OA
ATOM      6  N   UNL     1      47.620  24.852  43.745  1.00  0.00    -0.308 N 
ENDROOT
BRANCH   3   7
ATOM      7  C   UNL     1      47.289  28.321  42.905  1.00  0.00     0.043 A 
ATOM      8  C   UNL     1      47.267  28.482  41.507  1.00  0.00    -0.026 A 
ATOM      9  C   UNL     1      47.432  29.474  43.701  1.00  0.00    -0.038 A 
ATOM     10  C   UNL     1      47.363  29.758  40.913  1.00  0.00     0.058 A 
ATOM     11  C   UNL     1      47.508  30.752  43.120  1.00  0.00    -0.060 A 
ATOM     12  C   UNL     1      47.479  30.895  41.729  1.00  0.00    -0.050 A 
BRANCH  10  13
ATOM     13  C   UNL     1      47.369  29.876  39.409  1.00  0.00     0.416 C 
ATOM     14  F   UNL     1      47.181  31.169  38.960  1.00  0.00    -0.166 F 
ATOM     15  F   UNL     1      48.599  29.442  38.973  1.00  0.00    -0.166 F 
ATOM     16  F   UNL     1      46.401  29.075  38.847  1.00  0.00    -0.166 F 
ENDBRANCH  10  13
ENDBRANCH   3   7
BRANCH   6  17
ATOM     17  C   UNL     1      48.168  23.619  43.326  1.00  0.00     0.043 A 
ATOM     18  C   UNL     1      49.403  23.529  42.651  1.00  0.00    -0.035 A 
ATOM     19  C   UNL     1      47.490  22.428  43.622  1.00  0.00    -0.035 A 
ATOM     20  C   UNL     1      49.947  22.286  42.272  1.00  0.00    -0.017 A 
ATOM     21  C   UNL     1      48.035  21.180  43.250  1.00  0.00    -0.017 A 
ATOM     22  C   UNL     1      49.274  21.099  42.587  1.00  0.00     0.127 A 
BRANCH  22  23
ATOM     23  O   UNL     1      49.769  19.880  42.243  1.00  0.00    -0.457 OA
BRANCH  23  24
ATOM     24  C   UNL     1      49.624  19.401  40.983  1.00  0.00     0.130 A 
ATOM     25  C   UNL     1      48.695  19.959  40.093  1.00  0.00    -0.001 A 
ATOM     26  C   UNL     1      50.416  18.344  40.523  1.00  0.00    -0.001 A 
ATOM     27  C   UNL     1      48.604  19.447  38.809  1.00  0.00     0.030 A 
ATOM     28  C   UNL     1      50.244  17.901  39.217  1.00  0.00     0.030 A 
ATOM     29  N   UNL     1      49.362  18.440  38.367  1.00  0.00    -0.264 NA
ENDBRANCH  23  24
ENDBRANCH  22  23
ENDBRANCH   6  17
TORSDOF 5
