MODEL 1
REMARK VINA RESULT:    -8.372      0.000      0.000
REMARK INTER + INTRA:         -10.232
REMARK INTER:                  -9.665
REMARK INTRA:                  -0.566
REMARK UNBOUND:                -0.392
REMARK  Name = 132190620
REMARK                            x       y       z     vdW  Elec       q    Type
REMARK                         _______ _______ _______ _____ _____    ______ ____
ROOT
ATOM      1  N   LIG    1       15.112   3.545   1.861  0.00  0.00    -0.269 N 
ATOM      2  H   LIG    1       15.873   4.150   1.704  0.00  0.00    +0.156 HD
ATOM      3  C   LIG    1       13.879   4.159   2.044  0.00  0.00    +0.308 C 
ATOM      4  N   LIG    1       14.028   5.539   1.961  0.00  0.00    -0.269 N 
ATOM      5  H   LIG    1       14.944   5.863   1.794  0.00  0.00    +0.156 HD
ATOM      6  O   LIG    1       12.826   3.574   2.246  0.00  0.00    -0.252 OA
ENDROOT
BRANCH   4   7
ATOM      7  C   LIG    1       13.037   6.534   2.084  0.00  0.00    +0.038 A 
ATOM      8  C   LIG    1       12.475   7.013   0.877  0.00  0.00    +0.027 A 
ATOM      9  C   LIG    1       11.478   7.994   0.877  0.00  0.00    +0.051 A 
ATOM     10  C   LIG    1       11.065   8.478   2.095  0.00  0.00    +0.173 A 
ATOM     11  C   LIG    1       11.610   8.024   3.274  0.00  0.00    +0.174 A 
ATOM     12  O   LIG    1       11.067   8.633   4.364  0.00  0.00    -0.395 OA
ATOM     13  C   LIG    1       10.098   9.473   3.724  0.00  0.00    +0.589 C 
ATOM     14  F   LIG    1       10.310  10.755   4.109  0.00  0.00    -0.125 F 
ATOM     15  F   LIG    1        8.864   9.114   4.158  0.00  0.00    -0.125 F 
ATOM     16  O   LIG    1       10.107   9.422   2.289  0.00  0.00    -0.395 OA
ATOM     17  C   LIG    1       12.596   7.054   3.303  0.00  0.00    +0.073 A 
ENDBRANCH   4   7
BRANCH   1  22
ATOM     18 CL   LIG    1       16.437  -2.225   2.319  0.00  0.00    -0.083 Cl
ATOM     19  C   LIG    1       16.043  -0.560   2.094  0.00  0.00    +0.053 A 
ATOM     20  C   LIG    1       15.948   0.023   0.825  0.00  0.00    +0.075 A 
ATOM     21  C   LIG    1       15.625   1.395   0.729  0.00  0.00    +0.037 A 
ATOM     22  C   LIG    1       15.418   2.171   1.872  0.00  0.00    +0.035 A 
ATOM     23  C   LIG    1       15.519   1.563   3.128  0.00  0.00    +0.025 A 
ATOM     24  C   LIG    1       15.825   0.207   3.240  0.00  0.00    +0.022 A 
BRANCH  20  25
ATOM     25  C   LIG    1       16.204  -0.779  -0.423  0.00  0.00    +0.419 C 
ATOM     26  F   LIG    1       15.418  -1.886  -0.517  0.00  0.00    -0.166 F 
ATOM     27  F   LIG    1       17.492  -1.215  -0.512  0.00  0.00    -0.166 F 
ATOM     28  F   LIG    1       15.982  -0.080  -1.572  0.00  0.00    -0.166 F 
ENDBRANCH  20  25
ENDBRANCH   1  22
TORSDOF 3
ENDMDL
MODEL 2
REMARK VINA RESULT:    -8.348      0.882      1.536
REMARK INTER + INTRA:         -10.204
REMARK INTER:                  -9.818
REMARK INTRA:                  -0.386
REMARK UNBOUND:                -0.392
REMARK  Name = 132190620
REMARK                            x       y       z     vdW  Elec       q    Type
REMARK                         _______ _______ _______ _____ _____    ______ ____
ROOT
ATOM      1  N   LIG    1       15.275   3.410   2.286  0.00  0.00    -0.269 N 
ATOM      2  H   LIG    1       16.045   3.980   2.062  0.00  0.00    +0.156 HD
ATOM      3  C   LIG    1       14.144   4.075   2.746  0.00  0.00    +0.308 C 
ATOM      4  N   LIG    1       14.390   5.443   2.783  0.00  0.00    -0.269 N 
ATOM      5  H   LIG    1       15.289   5.725   2.493  0.00  0.00    +0.156 HD
ATOM      6  O   LIG    1       13.095   3.537   3.066  0.00  0.00    -0.252 OA
ENDROOT
BRANCH   4   7
ATOM      7  C   LIG    1       13.519   6.477   3.181  0.00  0.00    +0.038 A 
ATOM      8  C   LIG    1       13.970   7.304   4.238  0.00  0.00    +0.027 A 
ATOM      9  C   LIG    1       13.194   8.367   4.712  0.00  0.00    +0.051 A 
ATOM     10  C   LIG    1       11.974   8.577   4.113  0.00  0.00    +0.173 A 
ATOM     11  C   LIG    1       11.525   7.774   3.090  0.00  0.00    +0.174 A 
ATOM     12  O   LIG    1       10.295   8.148   2.641  0.00  0.00    -0.395 OA
ATOM     13  C   LIG    1       10.064   9.295   3.469  0.00  0.00    +0.589 C 
ATOM     14  F   LIG    1        8.891   9.129   4.126  0.00  0.00    -0.125 F 
ATOM     15  F   LIG    1        9.936  10.384   2.670  0.00  0.00    -0.125 F 
ATOM     16  O   LIG    1       11.093   9.561   4.434  0.00  0.00    -0.395 OA
ATOM     17  C   LIG    1       12.272   6.719   2.602  0.00  0.00    +0.073 A 
ENDBRANCH   4   7
BRANCH   1  22
ATOM     18 CL   LIG    1       16.102  -2.458   1.909  0.00  0.00    -0.083 Cl
ATOM     19  C   LIG    1       15.854  -0.750   1.926  0.00  0.00    +0.053 A 
ATOM     20  C   LIG    1       15.831   0.015   0.754  0.00  0.00    +0.075 A 
ATOM     21  C   LIG    1       15.626   1.410   0.856  0.00  0.00    +0.037 A 
ATOM     22  C   LIG    1       15.464   2.027   2.098  0.00  0.00    +0.035 A 
ATOM     23  C   LIG    1       15.490   1.238   3.254  0.00  0.00    +0.025 A 
ATOM     24  C   LIG    1       15.680  -0.141   3.169  0.00  0.00    +0.022 A 
BRANCH  20  25
ATOM     25  C   LIG    1       16.042  -0.617  -0.596  0.00  0.00    +0.419 C 
ATOM     26  F   LIG    1       15.220  -1.679  -0.822  0.00  0.00    -0.166 F 
ATOM     27  F   LIG    1       17.314  -1.072  -0.770  0.00  0.00    -0.166 F 
ATOM     28  F   LIG    1       15.821   0.237  -1.636  0.00  0.00    -0.166 F 
ENDBRANCH  20  25
ENDBRANCH   1  22
TORSDOF 3
ENDMDL
MODEL 3
REMARK VINA RESULT:    -8.244      4.800     10.068
REMARK INTER + INTRA:         -10.081
REMARK INTER:                  -9.534
REMARK INTRA:                  -0.547
REMARK UNBOUND:                -0.392
REMARK  Name = 132190620
REMARK                            x       y       z     vdW  Elec       q    Type
REMARK                         _______ _______ _______ _____ _____    ______ ____
ROOT
ATOM      1  N   LIG    1       14.662   2.220   2.716  0.00  0.00    -0.269 N 
ATOM      2  H   LIG    1       14.256   1.847   3.532  0.00  0.00    +0.156 HD
ATOM      3  C   LIG    1       15.143   1.290   1.801  0.00  0.00    +0.308 C 
ATOM      4  N   LIG    1       14.927   0.005   2.286  0.00  0.00    -0.269 N 
ATOM      5  H   LIG    1       14.488  -0.054   3.166  0.00  0.00    +0.156 HD
ATOM      6  O   LIG    1       15.672   1.563   0.735  0.00  0.00    -0.252 OA
ENDROOT
BRANCH   4   7
ATOM      7  C   LIG    1       15.256  -1.224   1.679  0.00  0.00    +0.038 A 
ATOM      8  C   LIG    1       16.508  -1.784   2.034  0.00  0.00    +0.027 A 
ATOM      9  C   LIG    1       16.937  -3.003   1.501  0.00  0.00    +0.051 A 
ATOM     10  C   LIG    1       16.097  -3.640   0.618  0.00  0.00    +0.173 A 
ATOM     11  C   LIG    1       14.882  -3.101   0.263  0.00  0.00    +0.174 A 
ATOM     12  O   LIG    1       14.208  -3.884  -0.624  0.00  0.00    -0.395 OA
ATOM     13  C   LIG    1       15.123  -4.982  -0.734  0.00  0.00    +0.589 C 
ATOM     14  F   LIG    1       15.437  -5.158  -2.041  0.00  0.00    -0.125 F 
ATOM     15  F   LIG    1       14.498  -6.107  -0.308  0.00  0.00    -0.125 F 
ATOM     16  O   LIG    1       16.341  -4.830   0.009  0.00  0.00    -0.395 OA
ATOM     17  C   LIG    1       14.433  -1.898   0.775  0.00  0.00    +0.073 A 
ENDBRANCH   4   7
BRANCH   1  22
ATOM     18 CL   LIG    1       14.329   8.132   2.273  0.00  0.00    -0.083 Cl
ATOM     19  C   LIG    1       14.517   6.423   2.421  0.00  0.00    +0.053 A 
ATOM     20  C   LIG    1       15.771   5.814   2.544  0.00  0.00    +0.075 A 
ATOM     21  C   LIG    1       15.836   4.407   2.656  0.00  0.00    +0.037 A 
ATOM     22  C   LIG    1       14.680   3.625   2.630  0.00  0.00    +0.035 A 
ATOM     23  C   LIG    1       13.438   4.259   2.506  0.00  0.00    +0.025 A 
ATOM     24  C   LIG    1       13.356   5.648   2.407  0.00  0.00    +0.022 A 
BRANCH  20  25
ATOM     25  C   LIG    1       17.037   6.628   2.536  0.00  0.00    +0.419 C 
ATOM     26  F   LIG    1       18.163   5.863   2.550  0.00  0.00    -0.166 F 
ATOM     27  F   LIG    1       17.130   7.467   3.605  0.00  0.00    -0.166 F 
ATOM     28  F   LIG    1       17.161   7.429   1.440  0.00  0.00    -0.166 F 
ENDBRANCH  20  25
ENDBRANCH   1  22
TORSDOF 3
ENDMDL
MODEL 4
REMARK VINA RESULT:    -8.042      3.801      9.846
REMARK INTER + INTRA:          -9.844
REMARK INTER:                  -9.318
REMARK INTRA:                  -0.526
REMARK UNBOUND:                -0.392
REMARK  Name = 132190620
REMARK                            x       y       z     vdW  Elec       q    Type
REMARK                         _______ _______ _______ _____ _____    ______ ____
ROOT
ATOM      1  N   LIG    1       15.213   3.791   2.004  0.00  0.00    -0.269 N 
ATOM      2  H   LIG    1       16.108   3.969   1.633  0.00  0.00    +0.156 HD
ATOM      3  C   LIG    1       14.838   2.453   2.058  0.00  0.00    +0.308 C 
ATOM      4  N   LIG    1       15.862   1.661   1.550  0.00  0.00    -0.269 N 
ATOM      5  H   LIG    1       16.663   2.142   1.239  0.00  0.00    +0.156 HD
ATOM      6  O   LIG    1       13.772   2.040   2.487  0.00  0.00    -0.252 OA
ENDROOT
BRANCH   4   7
ATOM      7  C   LIG    1       15.899   0.258   1.423  0.00  0.00    +0.038 A 
ATOM      8  C   LIG    1       16.175  -0.472   2.604  0.00  0.00    +0.027 A 
ATOM      9  C   LIG    1       16.230  -1.870   2.600  0.00  0.00    +0.051 A 
ATOM     10  C   LIG    1       16.005  -2.510   1.404  0.00  0.00    +0.173 A 
ATOM     11  C   LIG    1       15.743  -1.809   0.250  0.00  0.00    +0.174 A 
ATOM     12  O   LIG    1       15.555  -2.628  -0.821  0.00  0.00    -0.395 OA
ATOM     13  C   LIG    1       15.685  -3.906  -0.185  0.00  0.00    +0.589 C 
ATOM     14  F   LIG    1       16.647  -4.615  -0.824  0.00  0.00    -0.125 F 
ATOM     15  F   LIG    1       14.516  -4.579  -0.329  0.00  0.00    -0.125 F 
ATOM     16  O   LIG    1       16.010  -3.855   1.212  0.00  0.00    -0.395 OA
ATOM     17  C   LIG    1       15.682  -0.428   0.226  0.00  0.00    +0.073 A 
ENDBRANCH   4   7
BRANCH   1  22
ATOM     18 CL   LIG    1       12.238   8.483   4.097  0.00  0.00    -0.083 Cl
ATOM     19  C   LIG    1       13.076   7.145   3.403  0.00  0.00    +0.053 A 
ATOM     20  C   LIG    1       12.946   6.797   2.053  0.00  0.00    +0.075 A 
ATOM     21  C   LIG    1       13.665   5.682   1.565  0.00  0.00    +0.037 A 
ATOM     22  C   LIG    1       14.481   4.924   2.407  0.00  0.00    +0.035 A 
ATOM     23  C   LIG    1       14.594   5.293   3.752  0.00  0.00    +0.025 A 
ATOM     24  C   LIG    1       13.900   6.398   4.247  0.00  0.00    +0.022 A 
BRANCH  20  25
ATOM     25  C   LIG    1       12.044   7.572   1.131  0.00  0.00    +0.419 C 
ATOM     26  F   LIG    1       10.791   7.747   1.633  0.00  0.00    -0.166 F 
ATOM     27  F   LIG    1       11.891   6.972  -0.082  0.00  0.00    -0.166 F 
ATOM     28  F   LIG    1       12.500   8.827   0.854  0.00  0.00    -0.166 F 
ENDBRANCH  20  25
ENDBRANCH   1  22
TORSDOF 3
ENDMDL
MODEL 5
REMARK VINA RESULT:    -8.025      4.127     10.040
REMARK INTER + INTRA:          -9.824
REMARK INTER:                  -9.945
REMARK INTRA:                   0.121
REMARK UNBOUND:                -0.392
REMARK  Name = 132190620
REMARK                            x       y       z     vdW  Elec       q    Type
REMARK                         _______ _______ _______ _____ _____    ______ ____
ROOT
ATOM      1  N   LIG    1       14.048   2.141   2.955  0.00  0.00    -0.269 N 
ATOM      2  H   LIG    1       13.504   1.526   3.498  0.00  0.00    +0.156 HD
ATOM      3  C   LIG    1       14.763   1.557   1.915  0.00  0.00    +0.308 C 
ATOM      4  N   LIG    1       14.526   0.187   1.899  0.00  0.00    -0.269 N 
ATOM      5  H   LIG    1       13.918  -0.152   2.595  0.00  0.00    +0.156 HD
ATOM      6  O   LIG    1       15.485   2.159   1.136  0.00  0.00    -0.252 OA
ENDROOT
BRANCH   4   7
ATOM      7  C   LIG    1       15.046  -0.779   1.013  0.00  0.00    +0.038 A 
ATOM      8  C   LIG    1       15.941  -0.305   0.023  0.00  0.00    +0.027 A 
ATOM      9  C   LIG    1       16.525  -1.173  -0.906  0.00  0.00    +0.051 A 
ATOM     10  C   LIG    1       16.197  -2.505  -0.821  0.00  0.00    +0.173 A 
ATOM     11  C   LIG    1       15.324  -2.974   0.133  0.00  0.00    +0.174 A 
ATOM     12  O   LIG    1       15.131  -4.319   0.043  0.00  0.00    -0.395 OA
ATOM     13  C   LIG    1       16.018  -4.626  -1.041  0.00  0.00    +0.589 C 
ATOM     14  F   LIG    1       15.319  -5.267  -2.008  0.00  0.00    -0.125 F 
ATOM     15  F   LIG    1       16.970  -5.480  -0.588  0.00  0.00    -0.125 F 
ATOM     16  O   LIG    1       16.671  -3.491  -1.628  0.00  0.00    -0.395 OA
ATOM     17  C   LIG    1       14.733  -2.139   1.063  0.00  0.00    +0.073 A 
ENDBRANCH   4   7
BRANCH   1  22
ATOM     18 CL   LIG    1       13.995   7.741   4.927  0.00  0.00    -0.083 Cl
ATOM     19  C   LIG    1       13.980   6.145   4.272  0.00  0.00    +0.053 A 
ATOM     20  C   LIG    1       13.414   5.851   3.026  0.00  0.00    +0.075 A 
ATOM     21  C   LIG    1       13.439   4.516   2.564  0.00  0.00    +0.037 A 
ATOM     22  C   LIG    1       14.001   3.496   3.334  0.00  0.00    +0.035 A 
ATOM     23  C   LIG    1       14.560   3.816   4.576  0.00  0.00    +0.025 A 
ATOM     24  C   LIG    1       14.554   5.131   5.041  0.00  0.00    +0.022 A 
BRANCH  20  25
ATOM     25  C   LIG    1       12.766   6.924   2.191  0.00  0.00    +0.419 C 
ATOM     26  F   LIG    1       11.634   7.427   2.754  0.00  0.00    -0.166 F 
ATOM     27  F   LIG    1       12.415   6.484   0.951  0.00  0.00    -0.166 F 
ATOM     28  F   LIG    1       13.571   8.003   1.974  0.00  0.00    -0.166 F 
ENDBRANCH  20  25
ENDBRANCH   1  22
TORSDOF 3
ENDMDL
