REMARK  Name = 132190620
REMARK                            x       y       z     vdW  Elec       q    Type
REMARK                         _______ _______ _______ _____ _____    ______ ____
ROOT
ATOM      1  N   LIG    1        5.396  -2.034   0.148  0.00  0.00    -0.269 N 
ATOM      2  H   LIG    1        4.449  -2.267   0.283  0.00  0.00    +0.156 HD
ATOM      3  C   LIG    1        6.311  -3.047   0.413  0.00  0.00    +0.308 C 
ATOM      4  N   LIG    1        5.635  -4.190   0.824  0.00  0.00    -0.269 N 
ATOM      5  H   LIG    1        4.653  -4.116   0.867  0.00  0.00    +0.156 HD
ATOM      6  O   LIG    1        7.522  -2.945   0.298  0.00  0.00    -0.252 OA
ENDROOT
BRANCH   4   7
ATOM      7  C   LIG    1        6.174  -5.441   1.186  0.00  0.00    +0.038 A 
ATOM      8  C   LIG    1        7.555  -5.462   1.498  0.00  0.00    +0.027 A 
ATOM      9  C   LIG    1        8.197  -6.645   1.878  0.00  0.00    +0.051 A 
ATOM     10  C   LIG    1        7.436  -7.789   1.938  0.00  0.00    +0.173 A 
ATOM     11  C   LIG    1        6.095  -7.779   1.630  0.00  0.00    +0.174 A 
ATOM     12  O   LIG    1        5.529  -9.012   1.747  0.00  0.00    -0.395 OA
ATOM     13  C   LIG    1        6.659  -9.764   2.205  0.00  0.00    +0.589 C 
ATOM     14  F   LIG    1        6.853 -10.813   1.368  0.00  0.00    -0.125 F 
ATOM     15  F   LIG    1        6.373 -10.267   3.432  0.00  0.00    -0.125 F 
ATOM     16  O   LIG    1        7.884  -9.021   2.294  0.00  0.00    -0.395 OA
ATOM     17  C   LIG    1        5.435  -6.624   1.252  0.00  0.00    +0.073 A 
ENDBRANCH   4   7
BRANCH   1  22
ATOM     18 CL   LIG    1        6.118   3.481  -1.929  0.00  0.00    -0.083 Cl
ATOM     19  C   LIG    1        5.981   1.892  -1.270  0.00  0.00    +0.053 A 
ATOM     20  C   LIG    1        6.958   1.342  -0.433  0.00  0.00    +0.075 A 
ATOM     21  C   LIG    1        6.772   0.031   0.061  0.00  0.00    +0.037 A 
ATOM     22  C   LIG    1        5.645  -0.718  -0.285  0.00  0.00    +0.035 A 
ATOM     23  C   LIG    1        4.683  -0.144  -1.124  0.00  0.00    +0.025 A 
ATOM     24  C   LIG    1        4.847   1.153  -1.610  0.00  0.00    +0.022 A 
BRANCH  20  25
ATOM     25  C   LIG    1        8.202   2.111  -0.074  0.00  0.00    +0.419 C 
ATOM     26  F   LIG    1        7.940   3.262   0.604  0.00  0.00    -0.166 F 
ATOM     27  F   LIG    1        8.933   2.467  -1.166  0.00  0.00    -0.166 F 
ATOM     28  F   LIG    1        9.061   1.413   0.721  0.00  0.00    -0.166 F 
ENDBRANCH  20  25
ENDBRANCH   1  22
TORSDOF 3
