REMARK SMILES Cc1ccc(NC(=O)c2ccc(CN3CCN(C)CC3)cc2)cc1Nc1nccc(-c2cccnc2)n1
REMARK SMILES IDX 24 1 2 2 3 3 4 4 5 5 23 6 1 7 25 8 26 9 30 10 29 11 37 12
REMARK SMILES IDX 28 13 27 14 31 15 33 16 32 17 34 18 35 19 36 20 6 21 7 22
REMARK SMILES IDX 8 23 9 24 10 25 22 26 11 27 21 28 12 29 13 30 14 31 15 32
REMARK SMILES IDX 20 33 16 34 19 35 17 36 18 37
REMARK H PARENT
REMARK Flexibility Score: inf
ROOT
ATOM      1  C   UNL     1      15.803  54.715  12.375  1.00  0.00     0.046 A 
ATOM      2  C   UNL     1      16.901  54.607  11.407  1.00  0.00    -0.027 A 
ATOM      3  C   UNL     1      17.881  53.578  11.607  1.00  0.00    -0.055 A 
ATOM      4  C   UNL     1      17.785  52.678  12.728  1.00  0.00    -0.038 A 
ATOM      5  C   UNL     1      16.718  52.778  13.669  1.00  0.00     0.043 A 
ATOM      6  C   UNL     1      15.722  53.821  13.473  1.00  0.00    -0.015 A 
ATOM      7  C   UNL     1      17.051  55.540  10.183  1.00  0.00    -0.038 C 
ENDROOT
BRANCH   1   8
ATOM      8  N   UNL     1      14.820  55.698  12.236  1.00  0.00    -0.324 N 
BRANCH   8   9
ATOM      9  C   UNL     1      15.078  57.014  12.586  1.00  0.00     0.227 A 
ATOM     10  C   UNL     1      14.266  59.248  12.737  1.00  0.00     0.077 A 
ATOM     11  C   UNL     1      15.528  59.697  13.253  1.00  0.00    -0.017 A 
ATOM     12  N   UNL     1      14.090  57.919  12.425  1.00  0.00    -0.213 NA
ATOM     13  C   UNL     1      16.545  58.729  13.413  1.00  0.00     0.033 A 
ATOM     14  N   UNL     1      16.307  57.414  13.079  1.00  0.00    -0.221 NA
BRANCH  10  15
ATOM     15  C   UNL     1      13.095  60.152  12.508  1.00  0.00     0.019 A 
ATOM     16  C   UNL     1      11.887  62.353  12.754  1.00  0.00    -0.043 A 
ATOM     17  C   UNL     1      13.042  61.522  13.003  1.00  0.00    -0.050 A 
ATOM     18  C   UNL     1      10.791  61.792  12.009  1.00  0.00     0.027 A 
ATOM     19  N   UNL     1      10.853  60.473  11.536  1.00  0.00    -0.264 NA
ATOM     20  C   UNL     1      11.953  59.649  11.759  1.00  0.00     0.036 A 
ENDBRANCH  10  15
ENDBRANCH   8   9
ENDBRANCH   1   8
BRANCH   5  21
ATOM     21  N   UNL     1      16.683  51.836  14.759  1.00  0.00    -0.322 N 
ATOM     22  C   UNL     1      15.711  51.699  15.736  1.00  0.00     0.255 C 
ATOM     23  O   UNL     1      14.822  52.512  15.946  1.00  0.00    -0.269 OA
BRANCH  22  24
ATOM     24  C   UNL     1      15.736  50.492  16.617  1.00  0.00     0.040 A 
ATOM     25  C   UNL     1      14.582  50.129  17.443  1.00  0.00    -0.049 A 
ATOM     26  C   UNL     1      16.933  49.679  16.656  1.00  0.00    -0.049 A 
ATOM     27  C   UNL     1      14.640  48.969  18.296  1.00  0.00    -0.057 A 
ATOM     28  C   UNL     1      16.986  48.542  17.493  1.00  0.00    -0.057 A 
ATOM     29  C   UNL     1      15.857  48.162  18.327  1.00  0.00    -0.034 A 
BRANCH  29  30
ATOM     30  C   UNL     1      16.015  46.919  19.224  1.00  0.00     0.023 C 
BRANCH  30  31
ATOM     31  N   UNL     1      17.280  46.799  20.008  1.00  0.00    -0.297 NA
ATOM     32  C   UNL     1      17.466  48.000  20.903  1.00  0.00     0.011 C 
ATOM     33  C   UNL     1      17.320  45.513  20.839  1.00  0.00     0.011 C 
ATOM     34  C   UNL     1      18.788  47.904  21.713  1.00  0.00     0.011 C 
ATOM     35  C   UNL     1      18.660  45.392  21.636  1.00  0.00     0.011 C 
ATOM     36  N   UNL     1      18.830  46.621  22.531  1.00  0.00    -0.304 NA
ATOM     37  C   UNL     1      20.060  46.482  23.325  1.00  0.00    -0.013 C 
ENDBRANCH  30  31
ENDBRANCH  29  30
ENDBRANCH  22  24
ENDBRANCH   5  21
TORSDOF 7
