MODEL 1
REMARK VINA RESULT:    -7.555      0.000      0.000
REMARK INTER + INTRA:          -9.448
REMARK INTER:                  -8.946
REMARK INTRA:                  -0.503
REMARK UNBOUND:                -0.568
REMARK SMILES O=C(Nc1ccc2c(c1)OC(F)(F)O2)Nc1ccc(Cl)c(C(F)(F)F)c1
REMARK SMILES IDX 20 1 16 2 21 3 26 4 17 5 19 6 18 7 22 8 23 9 24 10 25 11
REMARK SMILES IDX 15 12 2 13 1 15 3 16 4 18 9 19 5 20 8 21 6 22 10 23 7 24
REMARK SMILES IDX 11 25 14 26 12 27 13 28
REMARK H PARENT 15 14 3 17
REMARK Flexibility Score: inf
ROOT
ATOM      1  Cl  UNL     1      15.538  31.540 100.112  1.00  0.00    -0.084 Cl
ATOM      2  C   UNL     1      14.659  35.878  99.220  1.00  0.00     0.043 A 
ATOM      3  C   UNL     1      14.792  33.585  98.472  1.00  0.00     0.076 A 
ATOM      4  C   UNL     1      14.523  34.928  98.208  1.00  0.00     0.040 A 
ATOM      5  C   UNL     1      15.064  35.485 100.497  1.00  0.00     0.028 A 
ATOM      6  C   UNL     1      15.198  33.192  99.747  1.00  0.00     0.053 A 
ATOM      7  C   UNL     1      15.333  34.142 100.759  1.00  0.00     0.023 A 
ENDROOT
BRANCH   3   8
ATOM      8  C   UNL     1      14.633  32.597  97.361  1.00  0.00     0.417 C 
ATOM      9  F   UNL     1      14.361  33.196  96.166  1.00  0.00    -0.166 F 
ATOM     10  F   UNL     1      15.746  31.835  97.148  1.00  0.00    -0.166 F 
ATOM     11  F   UNL     1      13.622  31.705  97.566  1.00  0.00    -0.166 F 
ENDBRANCH   3   8
BRANCH   2  12
ATOM     12  N   UNL     1      14.387  37.240  98.952  1.00  0.00    -0.308 N 
ATOM     13  C   UNL     1      13.159  37.913  99.060  1.00  0.00     0.323 C 
ATOM     14  H   UNL     1      15.184  37.792  98.645  1.00  0.00     0.171 HD
ATOM     15  O   UNL     1      12.100  37.406  99.415  1.00  0.00    -0.248 OA
ATOM     16  N   UNL     1      13.320  39.273  98.698  1.00  0.00    -0.308 N 
ATOM     17  H   UNL     1      14.259  39.552  98.425  1.00  0.00     0.171 HD
BRANCH  16  18
ATOM     18  C   UNL     1      12.360  40.286  98.666  1.00  0.00     0.046 A 
ATOM     19  C   UNL     1      11.768  40.716  99.856  1.00  0.00     0.077 A 
ATOM     20  C   UNL     1      11.998  40.863  97.437  1.00  0.00     0.030 A 
ATOM     21  C   UNL     1      10.824  41.719  99.775  1.00  0.00     0.174 A 
ATOM     22  C   UNL     1      11.040  41.877  97.381  1.00  0.00     0.053 A 
ATOM     23  O   UNL     1      10.146  42.263 100.823  1.00  0.00    -0.395 OA
ATOM     24  C   UNL     1      10.470  42.285  98.569  1.00  0.00     0.172 A 
ATOM     25  C   UNL     1       9.333  43.224 100.132  1.00  0.00     0.586 C 
ATOM     26  O   UNL     1       9.524  43.256  98.710  1.00  0.00    -0.395 OA
ATOM     27  F   UNL     1       9.601  44.456 100.632  1.00  0.00    -0.125 F 
ATOM     28  F   UNL     1       8.029  42.954 100.388  1.00  0.00    -0.125 F 
ENDBRANCH  16  18
ENDBRANCH   2  12
TORSDOF 3
ENDMDL
MODEL 2
REMARK VINA RESULT:    -7.531      4.050      9.724
REMARK INTER + INTRA:          -9.420
REMARK INTER:                  -8.922
REMARK INTRA:                  -0.498
REMARK UNBOUND:                -0.568
REMARK SMILES O=C(Nc1ccc2c(c1)OC(F)(F)O2)Nc1ccc(Cl)c(C(F)(F)F)c1
REMARK SMILES IDX 20 1 16 2 21 3 26 4 17 5 19 6 18 7 22 8 23 9 24 10 25 11
REMARK SMILES IDX 15 12 2 13 1 15 3 16 4 18 9 19 5 20 8 21 6 22 10 23 7 24
REMARK SMILES IDX 11 25 14 26 12 27 13 28
REMARK H PARENT 15 14 3 17
REMARK Flexibility Score: inf
ROOT
ATOM      1  Cl  UNL     1      13.662  42.749  99.709  1.00  0.00    -0.084 Cl
ATOM      2  C   UNL     1      13.372  38.242  99.685  1.00  0.00     0.043 A 
ATOM      3  C   UNL     1      12.882  40.365  98.641  1.00  0.00     0.076 A 
ATOM      4  C   UNL     1      12.799  38.973  98.644  1.00  0.00     0.040 A 
ATOM      5  C   UNL     1      14.029  38.904 100.723  1.00  0.00     0.028 A 
ATOM      6  C   UNL     1      13.537  41.027  99.679  1.00  0.00     0.053 A 
ATOM      7  C   UNL     1      14.110  40.297 100.720  1.00  0.00     0.023 A 
ENDROOT
BRANCH   3   8
ATOM      8  C   UNL     1      12.257  41.112  97.507  1.00  0.00     0.417 C 
ATOM      9  F   UNL     1      11.182  41.854  97.901  1.00  0.00    -0.166 F 
ATOM     10  F   UNL     1      13.108  41.988  96.898  1.00  0.00    -0.166 F 
ATOM     11  F   UNL     1      11.801  40.302  96.508  1.00  0.00    -0.166 F 
ENDBRANCH   3   8
BRANCH   2  12
ATOM     12  N   UNL     1      13.288  36.830  99.688  1.00  0.00    -0.308 N 
ATOM     13  C   UNL     1      14.050  35.917  98.941  1.00  0.00     0.323 C 
ATOM     14  H   UNL     1      12.586  36.437 100.310  1.00  0.00     0.171 HD
ATOM     15  O   UNL     1      14.935  36.215  98.146  1.00  0.00    -0.248 OA
ATOM     16  N   UNL     1      13.648  34.593  99.241  1.00  0.00    -0.308 N 
ATOM     17  H   UNL     1      12.899  34.499  99.922  1.00  0.00     0.171 HD
BRANCH  16  18
ATOM     18  C   UNL     1      14.142  33.394  98.725  1.00  0.00     0.046 A 
ATOM     19  C   UNL     1      13.346  32.629  97.870  1.00  0.00     0.077 A 
ATOM     20  C   UNL     1      15.437  32.968  99.071  1.00  0.00     0.030 A 
ATOM     21  C   UNL     1      13.878  31.452  97.384  1.00  0.00     0.174 A 
ATOM     22  C   UNL     1      15.952  31.773  98.566  1.00  0.00     0.053 A 
ATOM     23  O   UNL     1      13.253  30.581  96.544  1.00  0.00    -0.395 OA
ATOM     24  C   UNL     1      15.147  31.035  97.723  1.00  0.00     0.172 A 
ATOM     25  C   UNL     1      14.274  29.582  96.403  1.00  0.00     0.586 C 
ATOM     26  O   UNL     1      15.478  29.850  97.137  1.00  0.00    -0.395 OA
ATOM     27  F   UNL     1      14.586  29.464  95.088  1.00  0.00    -0.125 F 
ATOM     28  F   UNL     1      13.774  28.390  96.812  1.00  0.00    -0.125 F 
ENDBRANCH  16  18
ENDBRANCH   2  12
TORSDOF 3
ENDMDL
MODEL 3
REMARK VINA RESULT:    -7.522      1.601      2.265
REMARK INTER + INTRA:          -9.409
REMARK INTER:                  -9.099
REMARK INTRA:                  -0.310
REMARK UNBOUND:                -0.568
REMARK SMILES O=C(Nc1ccc2c(c1)OC(F)(F)O2)Nc1ccc(Cl)c(C(F)(F)F)c1
REMARK SMILES IDX 20 1 16 2 21 3 26 4 17 5 19 6 18 7 22 8 23 9 24 10 25 11
REMARK SMILES IDX 15 12 2 13 1 15 3 16 4 18 9 19 5 20 8 21 6 22 10 23 7 24
REMARK SMILES IDX 11 25 14 26 12 27 13 28
REMARK H PARENT 15 14 3 17
REMARK Flexibility Score: inf
ROOT
ATOM      1  Cl  UNL     1      15.157  32.012  97.167  1.00  0.00    -0.084 Cl
ATOM      2  C   UNL     1      14.688  36.342  98.358  1.00  0.00     0.043 A 
ATOM      3  C   UNL     1      15.226  34.692  96.677  1.00  0.00     0.076 A 
ATOM      4  C   UNL     1      15.077  36.027  97.056  1.00  0.00     0.040 A 
ATOM      5  C   UNL     1      14.447  35.324  99.281  1.00  0.00     0.028 A 
ATOM      6  C   UNL     1      14.986  33.674  97.600  1.00  0.00     0.053 A 
ATOM      7  C   UNL     1      14.597  33.990  98.902  1.00  0.00     0.023 A 
ENDROOT
BRANCH   3   8
ATOM      8  C   UNL     1      15.642  34.395  95.273  1.00  0.00     0.417 C 
ATOM      9  F   UNL     1      15.827  35.526  94.534  1.00  0.00    -0.166 F 
ATOM     10  F   UNL     1      16.816  33.703  95.189  1.00  0.00    -0.166 F 
ATOM     11  F   UNL     1      14.734  33.647  94.583  1.00  0.00    -0.166 F 
ENDBRANCH   3   8
BRANCH   2  12
ATOM     12  N   UNL     1      14.538  37.695  98.743  1.00  0.00    -0.308 N 
ATOM     13  C   UNL     1      13.383  38.335  99.219  1.00  0.00     0.323 C 
ATOM     14  H   UNL     1      15.375  38.267  98.661  1.00  0.00     0.171 HD
ATOM     15  O   UNL     1      12.290  37.801  99.380  1.00  0.00    -0.248 OA
ATOM     16  N   UNL     1      13.661  39.698  99.490  1.00  0.00    -0.308 N 
ATOM     17  H   UNL     1      14.615  40.001  99.308  1.00  0.00     0.171 HD
BRANCH  16  18
ATOM     18  C   UNL     1      12.800  40.683  99.975  1.00  0.00     0.046 A 
ATOM     19  C   UNL     1      11.592  40.929  99.318  1.00  0.00     0.077 A 
ATOM     20  C   UNL     1      13.157  41.419 101.118  1.00  0.00     0.030 A 
ATOM     21  C   UNL     1      10.773  41.913  99.833  1.00  0.00     0.174 A 
ATOM     22  C   UNL     1      12.311  42.409 101.620  1.00  0.00     0.053 A 
ATOM     23  O   UNL     1       9.565  42.290  99.331  1.00  0.00    -0.395 OA
ATOM     24  C   UNL     1      11.123  42.634 100.955  1.00  0.00     0.172 A 
ATOM     25  C   UNL     1       9.209  43.322 100.262  1.00  0.00     0.586 C 
ATOM     26  O   UNL     1      10.177  43.553 101.297  1.00  0.00    -0.395 OA
ATOM     27  F   UNL     1       8.028  42.993 100.842  1.00  0.00    -0.125 F 
ATOM     28  F   UNL     1       9.021  44.478  99.579  1.00  0.00    -0.125 F 
ENDBRANCH  16  18
ENDBRANCH   2  12
TORSDOF 3
ENDMDL
MODEL 4
REMARK VINA RESULT:    -7.371      4.533      9.825
REMARK INTER + INTRA:          -9.232
REMARK INTER:                  -8.763
REMARK INTRA:                  -0.469
REMARK UNBOUND:                -0.568
REMARK SMILES O=C(Nc1ccc2c(c1)OC(F)(F)O2)Nc1ccc(Cl)c(C(F)(F)F)c1
REMARK SMILES IDX 20 1 16 2 21 3 26 4 17 5 19 6 18 7 22 8 23 9 24 10 25 11
REMARK SMILES IDX 15 12 2 13 1 15 3 16 4 18 9 19 5 20 8 21 6 22 10 23 7 24
REMARK SMILES IDX 11 25 14 26 12 27 13 28
REMARK H PARENT 15 14 3 17
REMARK Flexibility Score: inf
ROOT
ATOM      1  Cl  UNL     1      13.500  42.636  99.141  1.00  0.00    -0.084 Cl
ATOM      2  C   UNL     1      13.726  38.155  99.649  1.00  0.00     0.043 A 
ATOM      3  C   UNL     1      14.827  40.305  99.627  1.00  0.00     0.076 A 
ATOM      4  C   UNL     1      14.885  38.920  99.782  1.00  0.00     0.040 A 
ATOM      5  C   UNL     1      12.509  38.775  99.361  1.00  0.00     0.028 A 
ATOM      6  C   UNL     1      13.612  40.925  99.338  1.00  0.00     0.053 A 
ATOM      7  C   UNL     1      12.453  40.160  99.205  1.00  0.00     0.023 A 
ENDROOT
BRANCH   3   8
ATOM      8  C   UNL     1      16.090  41.090  99.778  1.00  0.00     0.417 C 
ATOM      9  F   UNL     1      16.145  41.765 100.962  1.00  0.00    -0.166 F 
ATOM     10  F   UNL     1      17.217  40.320  99.739  1.00  0.00    -0.166 F 
ATOM     11  F   UNL     1      16.266  42.032  98.807  1.00  0.00    -0.166 F 
ENDBRANCH   3   8
BRANCH   2  12
ATOM     12  N   UNL     1      13.785  36.750  99.806  1.00  0.00    -0.308 N 
ATOM     13  C   UNL     1      14.268  35.798  98.893  1.00  0.00     0.323 C 
ATOM     14  H   UNL     1      13.432  36.395 100.691  1.00  0.00     0.171 HD
ATOM     15  O   UNL     1      14.728  36.048  97.784  1.00  0.00    -0.248 OA
ATOM     16  N   UNL     1      14.148  34.498  99.442  1.00  0.00    -0.308 N 
ATOM     17  H   UNL     1      13.746  34.445 100.375  1.00  0.00     0.171 HD
BRANCH  16  18
ATOM     18  C   UNL     1      14.506  33.275  98.873  1.00  0.00     0.046 A 
ATOM     19  C   UNL     1      13.609  32.616  98.029  1.00  0.00     0.077 A 
ATOM     20  C   UNL     1      15.766  32.719  99.154  1.00  0.00     0.030 A 
ATOM     21  C   UNL     1      14.007  31.410  97.489  1.00  0.00     0.174 A 
ATOM     22  C   UNL     1      16.146  31.497  98.595  1.00  0.00     0.053 A 
ATOM     23  O   UNL     1      13.271  30.630  96.650  1.00  0.00    -0.395 OA
ATOM     24  C   UNL     1      15.243  30.865  97.764  1.00  0.00     0.172 A 
ATOM     25  C   UNL     1      14.186  29.544  96.440  1.00  0.00     0.586 C 
ATOM     26  O   UNL     1      15.437  29.675  97.132  1.00  0.00    -0.395 OA
ATOM     27  F   UNL     1      14.436  29.440  95.111  1.00  0.00    -0.125 F 
ATOM     28  F   UNL     1      13.591  28.391  96.836  1.00  0.00    -0.125 F 
ENDBRANCH  16  18
ENDBRANCH   2  12
TORSDOF 3
ENDMDL
MODEL 5
REMARK VINA RESULT:    -7.218      1.815      2.390
REMARK INTER + INTRA:          -9.052
REMARK INTER:                  -8.687
REMARK INTRA:                  -0.365
REMARK UNBOUND:                -0.568
REMARK SMILES O=C(Nc1ccc2c(c1)OC(F)(F)O2)Nc1ccc(Cl)c(C(F)(F)F)c1
REMARK SMILES IDX 20 1 16 2 21 3 26 4 17 5 19 6 18 7 22 8 23 9 24 10 25 11
REMARK SMILES IDX 15 12 2 13 1 15 3 16 4 18 9 19 5 20 8 21 6 22 10 23 7 24
REMARK SMILES IDX 11 25 14 26 12 27 13 28
REMARK H PARENT 15 14 3 17
REMARK Flexibility Score: inf
ROOT
ATOM      1  Cl  UNL     1      16.441  33.420  96.027  1.00  0.00    -0.084 Cl
ATOM      2  C   UNL     1      14.734  36.517  98.835  1.00  0.00     0.043 A 
ATOM      3  C   UNL     1      14.653  34.295  97.889  1.00  0.00     0.076 A 
ATOM      4  C   UNL     1      14.134  35.260  98.753  1.00  0.00     0.040 A 
ATOM      5  C   UNL     1      15.852  36.810  98.053  1.00  0.00     0.028 A 
ATOM      6  C   UNL     1      15.770  34.588  97.107  1.00  0.00     0.053 A 
ATOM      7  C   UNL     1      16.370  35.845  97.189  1.00  0.00     0.023 A 
ENDROOT
BRANCH   3   8
ATOM      8  C   UNL     1      13.984  32.960  97.831  1.00  0.00     0.417 C 
ATOM      9  F   UNL     1      12.799  32.942  98.506  1.00  0.00    -0.166 F 
ATOM     10  F   UNL     1      13.692  32.553  96.561  1.00  0.00    -0.166 F 
ATOM     11  F   UNL     1      14.731  31.953  98.367  1.00  0.00    -0.166 F 
ENDBRANCH   3   8
BRANCH   2  12
ATOM     12  N   UNL     1      14.208  37.495  99.711  1.00  0.00    -0.308 N 
ATOM     13  C   UNL     1      13.529  38.678  99.377  1.00  0.00     0.323 C 
ATOM     14  H   UNL     1      14.342  37.310 100.702  1.00  0.00     0.171 HD
ATOM     15  O   UNL     1      13.281  39.058  98.237  1.00  0.00    -0.248 OA
ATOM     16  N   UNL     1      13.169  39.377 100.556  1.00  0.00    -0.308 N 
ATOM     17  H   UNL     1      13.442  38.941 101.432  1.00  0.00     0.171 HD
BRANCH  16  18
ATOM     18  C   UNL     1      12.488  40.590 100.675  1.00  0.00     0.046 A 
ATOM     19  C   UNL     1      11.229  40.736 100.087  1.00  0.00     0.077 A 
ATOM     20  C   UNL     1      13.074  41.651 101.386  1.00  0.00     0.030 A 
ATOM     21  C   UNL     1      10.593  41.952 100.232  1.00  0.00     0.174 A 
ATOM     22  C   UNL     1      12.410  42.872 101.519  1.00  0.00     0.053 A 
ATOM     23  O   UNL     1       9.370  42.278  99.731  1.00  0.00    -0.395 OA
ATOM     24  C   UNL     1      11.168  42.993 100.929  1.00  0.00     0.172 A 
ATOM     25  C   UNL     1       9.253  43.632 100.193  1.00  0.00     0.586 C 
ATOM     26  O   UNL     1      10.377  44.101 100.954  1.00  0.00    -0.395 OA
ATOM     27  F   UNL     1       8.140  43.733 100.960  1.00  0.00    -0.125 F 
ATOM     28  F   UNL     1       9.087  44.444  99.121  1.00  0.00    -0.125 F 
ENDBRANCH  16  18
ENDBRANCH   2  12
TORSDOF 3
ENDMDL
MODEL 6
REMARK VINA RESULT:    -7.214      3.683      9.651
REMARK INTER + INTRA:          -9.047
REMARK INTER:                  -8.632
REMARK INTRA:                  -0.415
REMARK UNBOUND:                -0.568
REMARK SMILES O=C(Nc1ccc2c(c1)OC(F)(F)O2)Nc1ccc(Cl)c(C(F)(F)F)c1
REMARK SMILES IDX 20 1 16 2 21 3 26 4 17 5 19 6 18 7 22 8 23 9 24 10 25 11
REMARK SMILES IDX 15 12 2 13 1 15 3 16 4 18 9 19 5 20 8 21 6 22 10 23 7 24
REMARK SMILES IDX 11 25 14 26 12 27 13 28
REMARK H PARENT 15 14 3 17
REMARK Flexibility Score: inf
ROOT
ATOM      1  Cl  UNL     1       9.626  43.545  99.068  1.00  0.00    -0.084 Cl
ATOM      2  C   UNL     1      12.531  40.101  98.761  1.00  0.00     0.043 A 
ATOM      3  C   UNL     1      11.387  41.958  97.722  1.00  0.00     0.076 A 
ATOM      4  C   UNL     1      12.282  40.892  97.639  1.00  0.00     0.040 A 
ATOM      5  C   UNL     1      11.885  40.377  99.967  1.00  0.00     0.028 A 
ATOM      6  C   UNL     1      10.740  42.233  98.926  1.00  0.00     0.053 A 
ATOM      7  C   UNL     1      10.989  41.443 100.049  1.00  0.00     0.023 A 
ENDROOT
BRANCH   3   8
ATOM      8  C   UNL     1      11.149  42.782  96.498  1.00  0.00     0.417 C 
ATOM      9  F   UNL     1      11.831  42.315  95.414  1.00  0.00    -0.166 F 
ATOM     10  F   UNL     1       9.838  42.826  96.119  1.00  0.00    -0.166 F 
ATOM     11  F   UNL     1      11.525  44.086  96.638  1.00  0.00    -0.166 F 
ENDBRANCH   3   8
BRANCH   2  12
ATOM     12  N   UNL     1      13.439  39.020  98.677  1.00  0.00    -0.308 N 
ATOM     13  C   UNL     1      13.201  37.667  98.968  1.00  0.00     0.323 C 
ATOM     14  H   UNL     1      14.377  39.261  98.366  1.00  0.00     0.171 HD
ATOM     15  O   UNL     1      12.134  37.200  99.354  1.00  0.00    -0.248 OA
ATOM     16  N   UNL     1      14.379  36.911  98.752  1.00  0.00    -0.308 N 
ATOM     17  H   UNL     1      15.190  37.434  98.431  1.00  0.00     0.171 HD
BRANCH  16  18
ATOM     18  C   UNL     1      14.578  35.540  98.920  1.00  0.00     0.046 A 
ATOM     19  C   UNL     1      14.655  34.710  97.799  1.00  0.00     0.077 A 
ATOM     20  C   UNL     1      14.698  35.007 100.215  1.00  0.00     0.030 A 
ATOM     21  C   UNL     1      14.852  33.361  98.014  1.00  0.00     0.174 A 
ATOM     22  C   UNL     1      14.897  33.639 100.407  1.00  0.00     0.053 A 
ATOM     23  O   UNL     1      14.953  32.406  97.049  1.00  0.00    -0.395 OA
ATOM     24  C   UNL     1      14.971  32.839  99.284  1.00  0.00     0.172 A 
ATOM     25  C   UNL     1      15.144  31.238  97.862  1.00  0.00     0.586 C 
ATOM     26  O   UNL     1      15.161  31.491  99.275  1.00  0.00    -0.395 OA
ATOM     27  F   UNL     1      16.318  30.655  97.513  1.00  0.00    -0.125 F 
ATOM     28  F   UNL     1      14.152  30.354  97.592  1.00  0.00    -0.125 F 
ENDBRANCH  16  18
ENDBRANCH   2  12
TORSDOF 3
ENDMDL
MODEL 7
REMARK VINA RESULT:    -7.089      3.350      4.538
REMARK INTER + INTRA:          -8.900
REMARK INTER:                  -8.351
REMARK INTRA:                  -0.549
REMARK UNBOUND:                -0.568
REMARK SMILES O=C(Nc1ccc2c(c1)OC(F)(F)O2)Nc1ccc(Cl)c(C(F)(F)F)c1
REMARK SMILES IDX 20 1 16 2 21 3 26 4 17 5 19 6 18 7 22 8 23 9 24 10 25 11
REMARK SMILES IDX 15 12 2 13 1 15 3 16 4 18 9 19 5 20 8 21 6 22 10 23 7 24
REMARK SMILES IDX 11 25 14 26 12 27 13 28
REMARK H PARENT 15 14 3 17
REMARK Flexibility Score: inf
ROOT
ATOM      1  Cl  UNL     1      16.228  35.475  99.773  1.00  0.00    -0.084 Cl
ATOM      2  C   UNL     1      12.820  38.437  99.830  1.00  0.00     0.043 A 
ATOM      3  C   UNL     1      14.271  36.911 101.014  1.00  0.00     0.076 A 
ATOM      4  C   UNL     1      13.220  37.828 101.020  1.00  0.00     0.040 A 
ATOM      5  C   UNL     1      13.471  38.130  98.635  1.00  0.00     0.028 A 
ATOM      6  C   UNL     1      14.922  36.603  99.819  1.00  0.00     0.053 A 
ATOM      7  C   UNL     1      14.522  37.212  98.630  1.00  0.00     0.023 A 
ENDROOT
BRANCH   3   8
ATOM      8  C   UNL     1      14.671  36.281 102.309  1.00  0.00     0.417 C 
ATOM      9  F   UNL     1      14.458  34.934 102.321  1.00  0.00    -0.166 F 
ATOM     10  F   UNL     1      15.992  36.449 102.611  1.00  0.00    -0.166 F 
ATOM     11  F   UNL     1      13.992  36.772 103.386  1.00  0.00    -0.166 F 
ENDBRANCH   3   8
BRANCH   2  12
ATOM     12  N   UNL     1      11.753  39.366  99.836  1.00  0.00    -0.308 N 
ATOM     13  C   UNL     1      11.825  40.764  99.960  1.00  0.00     0.323 C 
ATOM     14  H   UNL     1      10.824  38.965  99.737  1.00  0.00     0.171 HD
ATOM     15  O   UNL     1      12.858  41.413 100.087  1.00  0.00    -0.248 OA
ATOM     16  N   UNL     1      10.523  41.320  99.917  1.00  0.00    -0.308 N 
ATOM     17  H   UNL     1       9.760  40.657  99.808  1.00  0.00     0.171 HD
BRANCH  16  18
ATOM     18  C   UNL     1      10.146  42.661 100.005  1.00  0.00     0.046 A 
ATOM     19  C   UNL     1       9.744  43.343  98.854  1.00  0.00     0.077 A 
ATOM     20  C   UNL     1      10.173  43.312 101.250  1.00  0.00     0.030 A 
ATOM     21  C   UNL     1       9.380  44.667  98.990  1.00  0.00     0.174 A 
ATOM     22  C   UNL     1       9.799  44.652 101.362  1.00  0.00     0.053 A 
ATOM     23  O   UNL     1       8.963  45.487  97.985  1.00  0.00    -0.395 OA
ATOM     24  C   UNL     1       9.406  45.305 100.211  1.00  0.00     0.172 A 
ATOM     25  C   UNL     1       8.738  46.700  98.719  1.00  0.00     0.586 C 
ATOM     26  O   UNL     1       9.009  46.605 100.126  1.00  0.00    -0.395 OA
ATOM     27  F   UNL     1       7.445  47.073  98.553  1.00  0.00    -0.125 F 
ATOM     28  F   UNL     1       9.517  47.677  98.193  1.00  0.00    -0.125 F 
ENDBRANCH  16  18
ENDBRANCH   2  12
TORSDOF 3
ENDMDL
MODEL 8
REMARK VINA RESULT:    -7.004      3.362      9.797
REMARK INTER + INTRA:          -8.800
REMARK INTER:                  -8.232
REMARK INTRA:                  -0.568
REMARK UNBOUND:                -0.568
REMARK SMILES O=C(Nc1ccc2c(c1)OC(F)(F)O2)Nc1ccc(Cl)c(C(F)(F)F)c1
REMARK SMILES IDX 20 1 16 2 21 3 26 4 17 5 19 6 18 7 22 8 23 9 24 10 25 11
REMARK SMILES IDX 15 12 2 13 1 15 3 16 4 18 9 19 5 20 8 21 6 22 10 23 7 24
REMARK SMILES IDX 11 25 14 26 12 27 13 28
REMARK H PARENT 15 14 3 17
REMARK Flexibility Score: inf
ROOT
ATOM      1  Cl  UNL     1       9.655  43.913  98.469  1.00  0.00    -0.084 Cl
ATOM      2  C   UNL     1      12.574  40.470  98.594  1.00  0.00     0.043 A 
ATOM      3  C   UNL     1      11.431  42.272  99.727  1.00  0.00     0.076 A 
ATOM      4  C   UNL     1      12.331  41.206  99.754  1.00  0.00     0.040 A 
ATOM      5  C   UNL     1      11.918  40.800  97.407  1.00  0.00     0.028 A 
ATOM      6  C   UNL     1      10.776  42.602  98.541  1.00  0.00     0.053 A 
ATOM      7  C   UNL     1      11.019  41.866  97.381  1.00  0.00     0.023 A 
ENDROOT
BRANCH   3   8
ATOM      8  C   UNL     1      11.196  43.035 100.991  1.00  0.00     0.417 C 
ATOM      9  F   UNL     1      11.972  42.590 102.020  1.00  0.00    -0.166 F 
ATOM     10  F   UNL     1      11.461  44.369 100.878  1.00  0.00    -0.166 F 
ATOM     11  F   UNL     1       9.910  42.961 101.440  1.00  0.00    -0.166 F 
ENDBRANCH   3   8
BRANCH   2  12
ATOM     12  N   UNL     1      13.486  39.390  98.621  1.00  0.00    -0.308 N 
ATOM     13  C   UNL     1      13.217  38.038  98.889  1.00  0.00     0.323 C 
ATOM     14  H   UNL     1      14.454  39.631  98.420  1.00  0.00     0.171 HD
ATOM     15  O   UNL     1      12.113  37.572  99.150  1.00  0.00    -0.248 OA
ATOM     16  N   UNL     1      14.413  37.283  98.814  1.00  0.00    -0.308 N 
ATOM     17  H   UNL     1      15.256  37.806  98.588  1.00  0.00     0.171 HD
BRANCH  16  18
ATOM     18  C   UNL     1      14.592  35.913  99.011  1.00  0.00     0.046 A 
ATOM     19  C   UNL     1      14.725  35.067  97.906  1.00  0.00     0.077 A 
ATOM     20  C   UNL     1      14.637  35.396 100.317  1.00  0.00     0.030 A 
ATOM     21  C   UNL     1      14.901  33.720  98.150  1.00  0.00     0.174 A 
ATOM     22  C   UNL     1      14.815  34.029 100.537  1.00  0.00     0.053 A 
ATOM     23  O   UNL     1      15.048  32.751  97.204  1.00  0.00    -0.395 OA
ATOM     24  C   UNL     1      14.945  33.215  99.431  1.00  0.00     0.172 A 
ATOM     25  C   UNL     1      15.185  31.593  98.041  1.00  0.00     0.586 C 
ATOM     26  O   UNL     1      15.125  31.865  99.450  1.00  0.00    -0.395 OA
ATOM     27  F   UNL     1      16.372  30.998  97.766  1.00  0.00    -0.125 F 
ATOM     28  F   UNL     1      14.203  30.712  97.729  1.00  0.00    -0.125 F 
ENDBRANCH  16  18
ENDBRANCH   2  12
TORSDOF 3
ENDMDL
MODEL 9
REMARK VINA RESULT:    -7.000      4.016      4.675
REMARK INTER + INTRA:          -8.796
REMARK INTER:                  -8.231
REMARK INTRA:                  -0.565
REMARK UNBOUND:                -0.568
REMARK SMILES O=C(Nc1ccc2c(c1)OC(F)(F)O2)Nc1ccc(Cl)c(C(F)(F)F)c1
REMARK SMILES IDX 20 1 16 2 21 3 26 4 17 5 19 6 18 7 22 8 23 9 24 10 25 11
REMARK SMILES IDX 15 12 2 13 1 15 3 16 4 18 9 19 5 20 8 21 6 22 10 23 7 24
REMARK SMILES IDX 11 25 14 26 12 27 13 28
REMARK H PARENT 15 14 3 17
REMARK Flexibility Score: inf
ROOT
ATOM      1  Cl  UNL     1      15.841  32.427 104.728  1.00  0.00    -0.084 Cl
ATOM      2  C   UNL     1      15.116  36.406 102.719  1.00  0.00     0.043 A 
ATOM      3  C   UNL     1      14.874  34.974 104.651  1.00  0.00     0.076 A 
ATOM      4  C   UNL     1      14.656  36.199 104.020  1.00  0.00     0.040 A 
ATOM      5  C   UNL     1      15.794  35.387 102.049  1.00  0.00     0.028 A 
ATOM      6  C   UNL     1      15.551  33.955 103.981  1.00  0.00     0.053 A 
ATOM      7  C   UNL     1      16.010  34.162 102.680  1.00  0.00     0.023 A 
ENDROOT
BRANCH   3   8
ATOM      8  C   UNL     1      14.368  34.793 106.046  1.00  0.00     0.417 C 
ATOM      9  F   UNL     1      15.355  34.436 106.916  1.00  0.00    -0.166 F 
ATOM     10  F   UNL     1      13.803  35.920 106.570  1.00  0.00    -0.166 F 
ATOM     11  F   UNL     1      13.410  33.828 106.156  1.00  0.00    -0.166 F 
ENDBRANCH   3   8
BRANCH   2  12
ATOM     12  N   UNL     1      14.894  37.648 102.080  1.00  0.00    -0.308 N 
ATOM     13  C   UNL     1      13.775  38.047 101.332  1.00  0.00     0.323 C 
ATOM     14  H   UNL     1      15.643  38.329 102.180  1.00  0.00     0.171 HD
ATOM     15  O   UNL     1      12.785  37.357 101.111  1.00  0.00    -0.248 OA
ATOM     16  N   UNL     1      13.954  39.373 100.865  1.00  0.00    -0.308 N 
ATOM     17  H   UNL     1      14.827  39.822 101.127  1.00  0.00     0.171 HD
BRANCH  16  18
ATOM     18  C   UNL     1      13.089  40.147 100.090  1.00  0.00     0.046 A 
ATOM     19  C   UNL     1      12.285  41.110 100.705  1.00  0.00     0.077 A 
ATOM     20  C   UNL     1      13.035  39.951  98.700  1.00  0.00     0.030 A 
ATOM     21  C   UNL     1      11.446  41.852  99.899  1.00  0.00     0.174 A 
ATOM     22  C   UNL     1      12.178  40.715  97.905  1.00  0.00     0.053 A 
ATOM     23  O   UNL     1      10.595  42.829 100.318  1.00  0.00    -0.395 OA
ATOM     24  C   UNL     1      11.394  41.660  98.535  1.00  0.00     0.172 A 
ATOM     25  C   UNL     1      10.011  43.217  99.065  1.00  0.00     0.586 C 
ATOM     26  O   UNL     1      10.504  42.493  97.927  1.00  0.00    -0.395 OA
ATOM     27  F   UNL     1      10.245  44.539  98.870  1.00  0.00    -0.125 F 
ATOM     28  F   UNL     1       8.669  43.045  99.139  1.00  0.00    -0.125 F 
ENDBRANCH  16  18
ENDBRANCH   2  12
TORSDOF 3
ENDMDL
MODEL 10
REMARK VINA RESULT:    -6.976      4.933      9.678
REMARK INTER + INTRA:          -8.767
REMARK INTER:                  -8.506
REMARK INTRA:                  -0.261
REMARK UNBOUND:                -0.568
REMARK SMILES O=C(Nc1ccc2c(c1)OC(F)(F)O2)Nc1ccc(Cl)c(C(F)(F)F)c1
REMARK SMILES IDX 20 1 16 2 21 3 26 4 17 5 19 6 18 7 22 8 23 9 24 10 25 11
REMARK SMILES IDX 15 12 2 13 1 15 3 16 4 18 9 19 5 20 8 21 6 22 10 23 7 24
REMARK SMILES IDX 11 25 14 26 12 27 13 28
REMARK H PARENT 15 14 3 17
REMARK Flexibility Score: inf
ROOT
ATOM      1  Cl  UNL     1      15.150  41.637 102.777  1.00  0.00    -0.084 Cl
ATOM      2  C   UNL     1      14.085  37.958 100.385  1.00  0.00     0.043 A 
ATOM      3  C   UNL     1      15.288  40.046 100.569  1.00  0.00     0.076 A 
ATOM      4  C   UNL     1      14.952  38.905  99.839  1.00  0.00     0.040 A 
ATOM      5  C   UNL     1      13.554  38.152 101.661  1.00  0.00     0.028 A 
ATOM      6  C   UNL     1      14.757  40.240 101.844  1.00  0.00     0.053 A 
ATOM      7  C   UNL     1      13.890  39.293 102.390  1.00  0.00     0.023 A 
ENDROOT
BRANCH   3   8
ATOM      8  C   UNL     1      16.221  41.036  99.950  1.00  0.00     0.417 C 
ATOM      9  F   UNL     1      16.631  40.658  98.705  1.00  0.00    -0.166 F 
ATOM     10  F   UNL     1      15.674  42.277  99.798  1.00  0.00    -0.166 F 
ATOM     11  F   UNL     1      17.362  41.233 100.671  1.00  0.00    -0.166 F 
ENDBRANCH   3   8
BRANCH   2  12
ATOM     12  N   UNL     1      13.744  36.802  99.645  1.00  0.00    -0.308 N 
ATOM     13  C   UNL     1      14.610  35.894  99.013  1.00  0.00     0.323 C 
ATOM     14  H   UNL     1      12.748  36.613  99.566  1.00  0.00     0.171 HD
ATOM     15  O   UNL     1      15.834  35.968  99.006  1.00  0.00    -0.248 OA
ATOM     16  N   UNL     1      13.860  34.873  98.380  1.00  0.00    -0.308 N 
ATOM     17  H   UNL     1      12.850  34.942  98.470  1.00  0.00     0.171 HD
BRANCH  16  18
ATOM     18  C   UNL     1      14.323  33.780  97.646  1.00  0.00     0.046 A 
ATOM     19  C   UNL     1      13.969  32.486  98.034  1.00  0.00     0.077 A 
ATOM     20  C   UNL     1      15.142  33.992  96.523  1.00  0.00     0.030 A 
ATOM     21  C   UNL     1      14.451  31.437  97.278  1.00  0.00     0.174 A 
ATOM     22  C   UNL     1      15.616  32.914  95.773  1.00  0.00     0.053 A 
ATOM     23  O   UNL     1      14.212  30.115  97.502  1.00  0.00    -0.395 OA
ATOM     24  C   UNL     1      15.253  31.645  96.176  1.00  0.00     0.172 A 
ATOM     25  C   UNL     1      14.955  29.531  96.422  1.00  0.00     0.586 C 
ATOM     26  O   UNL     1      15.617  30.480  95.572  1.00  0.00    -0.395 OA
ATOM     27  F   UNL     1      14.108  28.790  95.665  1.00  0.00    -0.125 F 
ATOM     28  F   UNL     1      15.885  28.690  96.939  1.00  0.00    -0.125 F 
ENDBRANCH  16  18
ENDBRANCH   2  12
TORSDOF 3
ENDMDL
MODEL 11
REMARK VINA RESULT:    -6.893      4.255      9.959
REMARK INTER + INTRA:          -8.670
REMARK INTER:                  -8.123
REMARK INTRA:                  -0.547
REMARK UNBOUND:                -0.568
REMARK SMILES O=C(Nc1ccc2c(c1)OC(F)(F)O2)Nc1ccc(Cl)c(C(F)(F)F)c1
REMARK SMILES IDX 20 1 16 2 21 3 26 4 17 5 19 6 18 7 22 8 23 9 24 10 25 11
REMARK SMILES IDX 15 12 2 13 1 15 3 16 4 18 9 19 5 20 8 21 6 22 10 23 7 24
REMARK SMILES IDX 11 25 14 26 12 27 13 28
REMARK H PARENT 15 14 3 17
REMARK Flexibility Score: inf
ROOT
ATOM      1  Cl  UNL     1       8.733  46.967  99.376  1.00  0.00    -0.084 Cl
ATOM      2  C   UNL     1      10.017  42.651  99.714  1.00  0.00     0.043 A 
ATOM      3  C   UNL     1       9.546  44.581  98.339  1.00  0.00     0.076 A 
ATOM      4  C   UNL     1       9.942  43.249  98.456  1.00  0.00     0.040 A 
ATOM      5  C   UNL     1       9.696  43.386 100.856  1.00  0.00     0.028 A 
ATOM      6  C   UNL     1       9.225  45.316  99.480  1.00  0.00     0.053 A 
ATOM      7  C   UNL     1       9.300  44.719 100.739  1.00  0.00     0.023 A 
ENDROOT
BRANCH   3   8
ATOM      8  C   UNL     1       9.480  45.186  96.974  1.00  0.00     0.417 C 
ATOM      9  F   UNL     1       8.244  45.681  96.682  1.00  0.00    -0.166 F 
ATOM     10  F   UNL     1      10.346  46.227  96.797  1.00  0.00    -0.166 F 
ATOM     11  F   UNL     1       9.771  44.305  95.974  1.00  0.00    -0.166 F 
ENDBRANCH   3   8
BRANCH   2  12
ATOM     12  N   UNL     1      10.418  41.300  99.832  1.00  0.00    -0.308 N 
ATOM     13  C   UNL     1      11.720  40.776  99.771  1.00  0.00     0.323 C 
ATOM     14  H   UNL     1       9.664  40.633  99.979  1.00  0.00     0.171 HD
ATOM     15  O   UNL     1      12.742  41.432  99.600  1.00  0.00    -0.248 OA
ATOM     16  N   UNL     1      11.683  39.370  99.937  1.00  0.00    -0.308 N 
ATOM     17  H   UNL     1      10.761  38.962 100.070  1.00  0.00     0.171 HD
BRANCH  16  18
ATOM     18  C   UNL     1      12.746  38.465  99.943  1.00  0.00     0.046 A 
ATOM     19  C   UNL     1      13.324  38.071  98.733  1.00  0.00     0.077 A 
ATOM     20  C   UNL     1      13.224  37.960 101.164  1.00  0.00     0.030 A 
ATOM     21  C   UNL     1      14.372  37.175  98.788  1.00  0.00     0.174 A 
ATOM     22  C   UNL     1      14.287  37.055 101.193  1.00  0.00     0.053 A 
ATOM     23  O   UNL     1      15.055  36.680  97.720  1.00  0.00    -0.395 OA
ATOM     24  C   UNL     1      14.841  36.680  99.986  1.00  0.00     0.172 A 
ATOM     25  C   UNL     1      15.995  35.825  98.388  1.00  0.00     0.586 C 
ATOM     26  O   UNL     1      15.878  35.813  99.819  1.00  0.00    -0.395 OA
ATOM     27  F   UNL     1      17.249  36.221  98.060  1.00  0.00    -0.125 F 
ATOM     28  F   UNL     1      15.832  34.559  97.930  1.00  0.00    -0.125 F 
ENDBRANCH  16  18
ENDBRANCH   2  12
TORSDOF 3
ENDMDL
MODEL 12
REMARK VINA RESULT:    -6.889      6.061      7.896
REMARK INTER + INTRA:          -8.665
REMARK INTER:                  -8.640
REMARK INTRA:                  -0.026
REMARK UNBOUND:                -0.568
REMARK SMILES O=C(Nc1ccc2c(c1)OC(F)(F)O2)Nc1ccc(Cl)c(C(F)(F)F)c1
REMARK SMILES IDX 20 1 16 2 21 3 26 4 17 5 19 6 18 7 22 8 23 9 24 10 25 11
REMARK SMILES IDX 15 12 2 13 1 15 3 16 4 18 9 19 5 20 8 21 6 22 10 23 7 24
REMARK SMILES IDX 11 25 14 26 12 27 13 28
REMARK H PARENT 15 14 3 17
REMARK Flexibility Score: inf
ROOT
ATOM      1  Cl  UNL     1      14.123  40.701 101.994  1.00  0.00    -0.084 Cl
ATOM      2  C   UNL     1      11.668  41.718  98.344  1.00  0.00     0.043 A 
ATOM      3  C   UNL     1      12.785  40.065  99.707  1.00  0.00     0.076 A 
ATOM      4  C   UNL     1      12.026  40.391  98.582  1.00  0.00     0.040 A 
ATOM      5  C   UNL     1      12.068  42.719  99.230  1.00  0.00     0.028 A 
ATOM      6  C   UNL     1      13.186  41.066 100.592  1.00  0.00     0.053 A 
ATOM      7  C   UNL     1      12.827  42.393 100.353  1.00  0.00     0.023 A 
ENDROOT
BRANCH   3   8
ATOM      8  C   UNL     1      13.147  38.632  99.928  1.00  0.00     0.417 C 
ATOM      9  F   UNL     1      12.758  38.180 101.154  1.00  0.00    -0.166 F 
ATOM     10  F   UNL     1      12.579  37.782  99.023  1.00  0.00    -0.166 F 
ATOM     11  F   UNL     1      14.487  38.391  99.853  1.00  0.00    -0.166 F 
ENDBRANCH   3   8
BRANCH   2  12
ATOM     12  N   UNL     1      10.899  42.049  97.204  1.00  0.00    -0.308 N 
ATOM     13  C   UNL     1      11.358  42.408  95.926  1.00  0.00     0.323 C 
ATOM     14  H   UNL     1       9.891  42.020  97.334  1.00  0.00     0.171 HD
ATOM     15  O   UNL     1      12.536  42.492  95.592  1.00  0.00    -0.248 OA
ATOM     16  N   UNL     1      10.258  42.660  95.070  1.00  0.00    -0.308 N 
ATOM     17  H   UNL     1       9.337  42.549  95.486  1.00  0.00     0.171 HD
BRANCH  16  18
ATOM     18  C   UNL     1      10.268  43.041  93.727  1.00  0.00     0.046 A 
ATOM     19  C   UNL     1       9.081  43.011  92.991  1.00  0.00     0.077 A 
ATOM     20  C   UNL     1      11.472  43.450  93.129  1.00  0.00     0.030 A 
ATOM     21  C   UNL     1       9.140  43.397  91.668  1.00  0.00     0.174 A 
ATOM     22  C   UNL     1      11.506  43.836  91.788  1.00  0.00     0.053 A 
ATOM     23  O   UNL     1       8.092  43.432  90.799  1.00  0.00    -0.395 OA
ATOM     24  C   UNL     1      10.321  43.799  91.081  1.00  0.00     0.172 A 
ATOM     25  C   UNL     1       8.754  43.898  89.614  1.00  0.00     0.586 C 
ATOM     26  O   UNL     1      10.161  44.138  89.772  1.00  0.00    -0.395 OA
ATOM     27  F   UNL     1       8.162  45.049  89.211  1.00  0.00    -0.125 F 
ATOM     28  F   UNL     1       8.579  42.981  88.630  1.00  0.00    -0.125 F 
ENDBRANCH  16  18
ENDBRANCH   2  12
TORSDOF 3
ENDMDL
MODEL 13
REMARK VINA RESULT:    -6.888      2.626      3.795
REMARK INTER + INTRA:          -8.665
REMARK INTER:                  -8.251
REMARK INTRA:                  -0.414
REMARK UNBOUND:                -0.568
REMARK SMILES O=C(Nc1ccc2c(c1)OC(F)(F)O2)Nc1ccc(Cl)c(C(F)(F)F)c1
REMARK SMILES IDX 20 1 16 2 21 3 26 4 17 5 19 6 18 7 22 8 23 9 24 10 25 11
REMARK SMILES IDX 15 12 2 13 1 15 3 16 4 18 9 19 5 20 8 21 6 22 10 23 7 24
REMARK SMILES IDX 11 25 14 26 12 27 13 28
REMARK H PARENT 15 14 3 17
REMARK Flexibility Score: inf
ROOT
ATOM      1  Cl  UNL     1      16.175  35.216 100.639  1.00  0.00    -0.084 Cl
ATOM      2  C   UNL     1      12.889  38.253 100.030  1.00  0.00     0.043 A 
ATOM      3  C   UNL     1      14.535  36.751  99.095  1.00  0.00     0.076 A 
ATOM      4  C   UNL     1      13.518  37.690  98.919  1.00  0.00     0.040 A 
ATOM      5  C   UNL     1      13.275  37.876 101.317  1.00  0.00     0.028 A 
ATOM      6  C   UNL     1      14.923  36.376 100.381  1.00  0.00     0.053 A 
ATOM      7  C   UNL     1      14.293  36.938 101.492  1.00  0.00     0.023 A 
ENDROOT
BRANCH   3   8
ATOM      8  C   UNL     1      15.184  36.171  97.880  1.00  0.00     0.417 C 
ATOM      9  F   UNL     1      14.954  34.832  97.756  1.00  0.00    -0.166 F 
ATOM     10  F   UNL     1      14.750  36.730  96.713  1.00  0.00    -0.166 F 
ATOM     11  F   UNL     1      16.540  36.316  97.866  1.00  0.00    -0.166 F 
ENDBRANCH   3   8
BRANCH   2  12
ATOM     12  N   UNL     1      11.858  39.205  99.851  1.00  0.00    -0.308 N 
ATOM     13  C   UNL     1      11.886  40.576 100.156  1.00  0.00     0.323 C 
ATOM     14  H   UNL     1      10.995  38.844  99.452  1.00  0.00     0.171 HD
ATOM     15  O   UNL     1      12.839  41.177 100.640  1.00  0.00    -0.248 OA
ATOM     16  N   UNL     1      10.644  41.170  99.821  1.00  0.00    -0.308 N 
ATOM     17  H   UNL     1       9.945  40.546  99.427  1.00  0.00     0.171 HD
BRANCH  16  18
ATOM     18  C   UNL     1      10.250  42.502  99.960  1.00  0.00     0.046 A 
ATOM     19  C   UNL     1       9.909  43.244  98.827  1.00  0.00     0.077 A 
ATOM     20  C   UNL     1      10.202  43.083 101.239  1.00  0.00     0.030 A 
ATOM     21  C   UNL     1       9.526  44.556  99.014  1.00  0.00     0.174 A 
ATOM     22  C   UNL     1       9.810  44.414 101.402  1.00  0.00     0.053 A 
ATOM     23  O   UNL     1       9.160  45.428  98.034  1.00  0.00    -0.395 OA
ATOM     24  C   UNL     1       9.477  45.126 100.268  1.00  0.00     0.172 A 
ATOM     25  C   UNL     1       8.882  46.597  98.819  1.00  0.00     0.586 C 
ATOM     26  O   UNL     1       9.074  46.427 100.232  1.00  0.00    -0.395 OA
ATOM     27  F   UNL     1       7.597  46.971  98.600  1.00  0.00    -0.125 F 
ATOM     28  F   UNL     1       9.681  47.607  98.393  1.00  0.00    -0.125 F 
ENDBRANCH  16  18
ENDBRANCH   2  12
TORSDOF 3
ENDMDL
MODEL 14
REMARK VINA RESULT:    -6.859      4.116      9.988
REMARK INTER + INTRA:          -8.630
REMARK INTER:                  -8.629
REMARK INTRA:                  -0.001
REMARK UNBOUND:                -0.568
REMARK SMILES O=C(Nc1ccc2c(c1)OC(F)(F)O2)Nc1ccc(Cl)c(C(F)(F)F)c1
REMARK SMILES IDX 20 1 16 2 21 3 26 4 17 5 19 6 18 7 22 8 23 9 24 10 25 11
REMARK SMILES IDX 15 12 2 13 1 15 3 16 4 18 9 19 5 20 8 21 6 22 10 23 7 24
REMARK SMILES IDX 11 25 14 26 12 27 13 28
REMARK H PARENT 15 14 3 17
REMARK Flexibility Score: inf
ROOT
ATOM      1  Cl  UNL     1      13.236  41.074 101.936  1.00  0.00    -0.084 Cl
ATOM      2  C   UNL     1      14.434  37.740  99.137  1.00  0.00     0.043 A 
ATOM      3  C   UNL     1      13.106  39.708  99.581  1.00  0.00     0.076 A 
ATOM      4  C   UNL     1      13.483  38.674  98.725  1.00  0.00     0.040 A 
ATOM      5  C   UNL     1      15.007  37.839 100.406  1.00  0.00     0.028 A 
ATOM      6  C   UNL     1      13.677  39.808 100.850  1.00  0.00     0.053 A 
ATOM      7  C   UNL     1      14.627  38.873 101.262  1.00  0.00     0.023 A 
ENDROOT
BRANCH   3   8
ATOM      8  C   UNL     1      12.086  40.690  99.102  1.00  0.00     0.417 C 
ATOM      9  F   UNL     1      12.535  41.977  99.157  1.00  0.00    -0.166 F 
ATOM     10  F   UNL     1      11.702  40.488  97.808  1.00  0.00    -0.166 F 
ATOM     11  F   UNL     1      10.929  40.671  99.826  1.00  0.00    -0.166 F 
ENDBRANCH   3   8
BRANCH   2  12
ATOM     12  N   UNL     1      14.816  36.691  98.269  1.00  0.00    -0.308 N 
ATOM     13  C   UNL     1      14.397  35.350  98.295  1.00  0.00     0.323 C 
ATOM     14  H   UNL     1      15.476  36.948  97.539  1.00  0.00     0.171 HD
ATOM     15  O   UNL     1      13.609  34.868  99.103  1.00  0.00    -0.248 OA
ATOM     16  N   UNL     1      15.020  34.629  97.247  1.00  0.00    -0.308 N 
ATOM     17  H   UNL     1      15.652  35.161  96.655  1.00  0.00     0.171 HD
BRANCH  16  18
ATOM     18  C   UNL     1      14.883  33.279  96.918  1.00  0.00     0.046 A 
ATOM     19  C   UNL     1      15.572  32.763  95.818  1.00  0.00     0.077 A 
ATOM     20  C   UNL     1      14.052  32.453  97.695  1.00  0.00     0.030 A 
ATOM     21  C   UNL     1      15.405  31.424  95.531  1.00  0.00     0.174 A 
ATOM     22  C   UNL     1      13.901  31.101  97.384  1.00  0.00     0.053 A 
ATOM     23  O   UNL     1      15.993  30.749  94.504  1.00  0.00    -0.395 OA
ATOM     24  C   UNL     1      14.592  30.614  96.293  1.00  0.00     0.172 A 
ATOM     25  C   UNL     1      15.452  29.436  94.716  1.00  0.00     0.586 C 
ATOM     26  O   UNL     1      14.567  29.329  95.841  1.00  0.00    -0.395 OA
ATOM     27  F   UNL     1      16.479  28.567  94.889  1.00  0.00    -0.125 F 
ATOM     28  F   UNL     1      14.781  29.058  93.600  1.00  0.00    -0.125 F 
ENDBRANCH  16  18
ENDBRANCH   2  12
TORSDOF 3
ENDMDL
MODEL 15
REMARK VINA RESULT:    -6.839      2.905      4.208
REMARK INTER + INTRA:          -8.607
REMARK INTER:                  -8.580
REMARK INTRA:                  -0.027
REMARK UNBOUND:                -0.568
REMARK SMILES O=C(Nc1ccc2c(c1)OC(F)(F)O2)Nc1ccc(Cl)c(C(F)(F)F)c1
REMARK SMILES IDX 20 1 16 2 21 3 26 4 17 5 19 6 18 7 22 8 23 9 24 10 25 11
REMARK SMILES IDX 15 12 2 13 1 15 3 16 4 18 9 19 5 20 8 21 6 22 10 23 7 24
REMARK SMILES IDX 11 25 14 26 12 27 13 28
REMARK H PARENT 15 14 3 17
REMARK Flexibility Score: inf
ROOT
ATOM      1  Cl  UNL     1      16.991  30.402  94.572  1.00  0.00    -0.084 Cl
ATOM      2  C   UNL     1      14.667  33.174  97.276  1.00  0.00     0.043 A 
ATOM      3  C   UNL     1      14.967  30.982  96.304  1.00  0.00     0.076 A 
ATOM      4  C   UNL     1      14.257  31.847  97.136  1.00  0.00     0.040 A 
ATOM      5  C   UNL     1      15.786  33.635  96.582  1.00  0.00     0.028 A 
ATOM      6  C   UNL     1      16.086  31.443  95.610  1.00  0.00     0.053 A 
ATOM      7  C   UNL     1      16.495  32.769  95.749  1.00  0.00     0.023 A 
ENDROOT
BRANCH   3   8
ATOM      8  C   UNL     1      14.498  29.568  96.182  1.00  0.00     0.417 C 
ATOM      9  F   UNL     1      15.353  28.683  96.769  1.00  0.00    -0.166 F 
ATOM     10  F   UNL     1      13.282  29.347  96.763  1.00  0.00    -0.166 F 
ATOM     11  F   UNL     1      14.360  29.149  94.891  1.00  0.00    -0.166 F 
ENDBRANCH   3   8
BRANCH   2  12
ATOM     12  N   UNL     1      13.946  34.051  98.119  1.00  0.00    -0.308 N 
ATOM     13  C   UNL     1      14.337  35.317  98.586  1.00  0.00     0.323 C 
ATOM     14  H   UNL     1      13.034  33.716  98.420  1.00  0.00     0.171 HD
ATOM     15  O   UNL     1      15.399  35.873  98.324  1.00  0.00    -0.248 OA
ATOM     16  N   UNL     1      13.322  35.863  99.408  1.00  0.00    -0.308 N 
ATOM     17  H   UNL     1      12.495  35.286  99.537  1.00  0.00     0.171 HD
BRANCH  16  18
ATOM     18  C   UNL     1      13.304  37.092 100.070  1.00  0.00     0.046 A 
ATOM     19  C   UNL     1      12.794  38.219  99.421  1.00  0.00     0.077 A 
ATOM     20  C   UNL     1      13.800  37.184 101.382  1.00  0.00     0.030 A 
ATOM     21  C   UNL     1      12.797  39.412 100.114  1.00  0.00     0.174 A 
ATOM     22  C   UNL     1      13.792  38.403 102.063  1.00  0.00     0.053 A 
ATOM     23  O   UNL     1      12.342  40.608  99.647  1.00  0.00    -0.395 OA
ATOM     24  C   UNL     1      13.282  39.502 101.401  1.00  0.00     0.172 A 
ATOM     25  C   UNL     1      12.602  41.445 100.784  1.00  0.00     0.586 C 
ATOM     26  O   UNL     1      13.193  40.765 101.903  1.00  0.00    -0.395 OA
ATOM     27  F   UNL     1      11.434  42.004 101.186  1.00  0.00    -0.125 F 
ATOM     28  F   UNL     1      13.428  42.451 100.404  1.00  0.00    -0.125 F 
ENDBRANCH  16  18
ENDBRANCH   2  12
TORSDOF 3
ENDMDL
MODEL 16
REMARK VINA RESULT:    -6.838      3.680      9.628
REMARK INTER + INTRA:          -8.606
REMARK INTER:                  -8.049
REMARK INTRA:                  -0.556
REMARK UNBOUND:                -0.568
REMARK SMILES O=C(Nc1ccc2c(c1)OC(F)(F)O2)Nc1ccc(Cl)c(C(F)(F)F)c1
REMARK SMILES IDX 20 1 16 2 21 3 26 4 17 5 19 6 18 7 22 8 23 9 24 10 25 11
REMARK SMILES IDX 15 12 2 13 1 15 3 16 4 18 9 19 5 20 8 21 6 22 10 23 7 24
REMARK SMILES IDX 11 25 14 26 12 27 13 28
REMARK H PARENT 15 14 3 17
REMARK Flexibility Score: inf
ROOT
ATOM      1  Cl  UNL     1      11.082  43.858 101.516  1.00  0.00    -0.084 Cl
ATOM      2  C   UNL     1      13.176  40.162  99.983  1.00  0.00     0.043 A 
ATOM      3  C   UNL     1      11.582  41.944  99.640  1.00  0.00     0.076 A 
ATOM      4  C   UNL     1      12.235  40.802  99.177  1.00  0.00     0.040 A 
ATOM      5  C   UNL     1      13.464  40.664 101.253  1.00  0.00     0.028 A 
ATOM      6  C   UNL     1      11.868  42.446 100.909  1.00  0.00     0.053 A 
ATOM      7  C   UNL     1      12.810  41.805 101.716  1.00  0.00     0.023 A 
ENDROOT
BRANCH   3   8
ATOM      8  C   UNL     1      10.582  42.603  98.745  1.00  0.00     0.417 C 
ATOM      9  F   UNL     1      10.469  41.976  97.539  1.00  0.00    -0.166 F 
ATOM     10  F   UNL     1       9.320  42.630  99.266  1.00  0.00    -0.166 F 
ATOM     11  F   UNL     1      10.879  43.903  98.460  1.00  0.00    -0.166 F 
ENDBRANCH   3   8
BRANCH   2  12
ATOM     12  N   UNL     1      13.838  39.003  99.514  1.00  0.00    -0.308 N 
ATOM     13  C   UNL     1      13.640  37.672  99.917  1.00  0.00     0.323 C 
ATOM     14  H   UNL     1      14.541  39.163  98.797  1.00  0.00     0.171 HD
ATOM     15  O   UNL     1      12.838  37.299 100.766  1.00  0.00    -0.248 OA
ATOM     16  N   UNL     1      14.508  36.816  99.196  1.00  0.00    -0.308 N 
ATOM     17  H   UNL     1      15.121  37.268  98.523  1.00  0.00     0.171 HD
BRANCH  16  18
ATOM     18  C   UNL     1      14.637  35.429  99.287  1.00  0.00     0.046 A 
ATOM     19  C   UNL     1      15.521  34.876 100.218  1.00  0.00     0.077 A 
ATOM     20  C   UNL     1      13.876  34.602  98.442  1.00  0.00     0.030 A 
ATOM     21  C   UNL     1      15.614  33.500 100.271  1.00  0.00     0.174 A 
ATOM     22  C   UNL     1      13.989  33.212  98.517  1.00  0.00     0.053 A 
ATOM     23  O   UNL     1      16.416  32.787 101.109  1.00  0.00    -0.395 OA
ATOM     24  C   UNL     1      14.868  32.690  99.443  1.00  0.00     0.172 A 
ATOM     25  C   UNL     1      16.086  31.450 100.707  1.00  0.00     0.586 C 
ATOM     26  O   UNL     1      15.108  31.366  99.658  1.00  0.00    -0.395 OA
ATOM     27  F   UNL     1      15.619  30.775 101.787  1.00  0.00    -0.125 F 
ATOM     28  F   UNL     1      17.217  30.828 100.293  1.00  0.00    -0.125 F 
ENDBRANCH  16  18
ENDBRANCH   2  12
TORSDOF 3
ENDMDL
MODEL 17
REMARK VINA RESULT:    -6.836      3.639      9.406
REMARK INTER + INTRA:          -8.603
REMARK INTER:                  -8.134
REMARK INTRA:                  -0.469
REMARK UNBOUND:                -0.568
REMARK SMILES O=C(Nc1ccc2c(c1)OC(F)(F)O2)Nc1ccc(Cl)c(C(F)(F)F)c1
REMARK SMILES IDX 20 1 16 2 21 3 26 4 17 5 19 6 18 7 22 8 23 9 24 10 25 11
REMARK SMILES IDX 15 12 2 13 1 15 3 16 4 18 9 19 5 20 8 21 6 22 10 23 7 24
REMARK SMILES IDX 11 25 14 26 12 27 13 28
REMARK H PARENT 15 14 3 17
REMARK Flexibility Score: inf
ROOT
ATOM      1  Cl  UNL     1      12.026  45.533 100.895  1.00  0.00    -0.084 Cl
ATOM      2  C   UNL     1      13.591  41.311 100.548  1.00  0.00     0.043 A 
ATOM      3  C   UNL     1      11.720  42.830 100.716  1.00  0.00     0.076 A 
ATOM      4  C   UNL     1      12.215  41.531 100.608  1.00  0.00     0.040 A 
ATOM      5  C   UNL     1      14.473  42.392 100.596  1.00  0.00     0.028 A 
ATOM      6  C   UNL     1      12.601  43.910 100.764  1.00  0.00     0.053 A 
ATOM      7  C   UNL     1      13.977  43.691 100.704  1.00  0.00     0.023 A 
ENDROOT
BRANCH   3   8
ATOM      8  C   UNL     1      10.239  43.024 100.776  1.00  0.00     0.417 C 
ATOM      9  F   UNL     1       9.787  43.885  99.820  1.00  0.00    -0.166 F 
ATOM     10  F   UNL     1       9.532  41.869 100.596  1.00  0.00    -0.166 F 
ATOM     11  F   UNL     1       9.803  43.529 101.965  1.00  0.00    -0.166 F 
ENDBRANCH   3   8
BRANCH   2  12
ATOM     12  N   UNL     1      14.093  39.993 100.440  1.00  0.00    -0.308 N 
ATOM     13  C   UNL     1      13.891  39.075  99.396  1.00  0.00     0.323 C 
ATOM     14  H   UNL     1      14.670  39.681 101.216  1.00  0.00     0.171 HD
ATOM     15  O   UNL     1      13.226  39.282  98.387  1.00  0.00    -0.248 OA
ATOM     16  N   UNL     1      14.571  37.865  99.679  1.00  0.00    -0.308 N 
ATOM     17  H   UNL     1      15.083  37.838 100.557  1.00  0.00     0.171 HD
BRANCH  16  18
ATOM     18  C   UNL     1      14.632  36.700  98.913  1.00  0.00     0.046 A 
ATOM     19  C   UNL     1      13.829  35.608  99.249  1.00  0.00     0.077 A 
ATOM     20  C   UNL     1      15.501  36.637  97.810  1.00  0.00     0.030 A 
ATOM     21  C   UNL     1      13.923  34.479  98.463  1.00  0.00     0.174 A 
ATOM     22  C   UNL     1      15.578  35.483  97.029  1.00  0.00     0.053 A 
ATOM     23  O   UNL     1      13.222  33.324  98.636  1.00  0.00    -0.395 OA
ATOM     24  C   UNL     1      14.775  34.417  97.381  1.00  0.00     0.172 A 
ATOM     25  C   UNL     1      13.735  32.544  97.546  1.00  0.00     0.586 C 
ATOM     26  O   UNL     1      14.714  33.217  96.740  1.00  0.00    -0.395 OA
ATOM     27  F   UNL     1      12.699  32.177  96.751  1.00  0.00    -0.125 F 
ATOM     28  F   UNL     1      14.289  31.412  98.045  1.00  0.00    -0.125 F 
ENDBRANCH  16  18
ENDBRANCH   2  12
TORSDOF 3
ENDMDL
MODEL 18
REMARK VINA RESULT:    -6.824      5.444     11.190
REMARK INTER + INTRA:          -8.589
REMARK INTER:                  -8.131
REMARK INTRA:                  -0.458
REMARK UNBOUND:                -0.568
REMARK SMILES O=C(Nc1ccc2c(c1)OC(F)(F)O2)Nc1ccc(Cl)c(C(F)(F)F)c1
REMARK SMILES IDX 20 1 16 2 21 3 26 4 17 5 19 6 18 7 22 8 23 9 24 10 25 11
REMARK SMILES IDX 15 12 2 13 1 15 3 16 4 18 9 19 5 20 8 21 6 22 10 23 7 24
REMARK SMILES IDX 11 25 14 26 12 27 13 28
REMARK H PARENT 15 14 3 17
REMARK Flexibility Score: inf
ROOT
ATOM      1  Cl  UNL     1       8.735  50.177  98.899  1.00  0.00    -0.084 Cl
ATOM      2  C   UNL     1       9.812  46.029 100.323  1.00  0.00     0.043 A 
ATOM      3  C   UNL     1       8.681  47.457  98.736  1.00  0.00     0.076 A 
ATOM      4  C   UNL     1       9.020  46.180  99.185  1.00  0.00     0.040 A 
ATOM      5  C   UNL     1      10.265  47.155 101.013  1.00  0.00     0.028 A 
ATOM      6  C   UNL     1       9.132  48.582  99.425  1.00  0.00     0.053 A 
ATOM      7  C   UNL     1       9.924  48.431 100.564  1.00  0.00     0.023 A 
ENDROOT
BRANCH   3   8
ATOM      8  C   UNL     1       7.832  47.576  97.511  1.00  0.00     0.417 C 
ATOM      9  F   UNL     1       7.762  46.409  96.810  1.00  0.00    -0.166 F 
ATOM     10  F   UNL     1       6.540  47.927  97.777  1.00  0.00    -0.166 F 
ATOM     11  F   UNL     1       8.282  48.512  96.626  1.00  0.00    -0.166 F 
ENDBRANCH   3   8
BRANCH   2  12
ATOM     12  N   UNL     1      10.155  44.735 100.779  1.00  0.00    -0.308 N 
ATOM     13  C   UNL     1      11.123  43.863 100.255  1.00  0.00     0.323 C 
ATOM     14  H   UNL     1       9.632  44.404 101.586  1.00  0.00     0.171 HD
ATOM     15  O   UNL     1      11.841  44.097  99.289  1.00  0.00    -0.248 OA
ATOM     16  N   UNL     1      11.150  42.663 101.007  1.00  0.00    -0.308 N 
ATOM     17  H   UNL     1      10.494  42.609 101.782  1.00  0.00     0.171 HD
BRANCH  16  18
ATOM     18  C   UNL     1      11.958  41.539 100.826  1.00  0.00     0.046 A 
ATOM     19  C   UNL     1      11.653  40.624  99.816  1.00  0.00     0.077 A 
ATOM     20  C   UNL     1      13.071  41.340 101.662  1.00  0.00     0.030 A 
ATOM     21  C   UNL     1      12.481  39.529  99.675  1.00  0.00     0.174 A 
ATOM     22  C   UNL     1      13.893  40.224 101.498  1.00  0.00     0.053 A 
ATOM     23  O   UNL     1      12.342  38.537  98.752  1.00  0.00    -0.395 OA
ATOM     24  C   UNL     1      13.572  39.334 100.494  1.00  0.00     0.172 A 
ATOM     25  C   UNL     1      13.464  37.709  99.092  1.00  0.00     0.586 C 
ATOM     26  O   UNL     1      14.255  38.196 100.187  1.00  0.00    -0.395 OA
ATOM     27  F   UNL     1      14.262  37.592  98.002  1.00  0.00    -0.125 F 
ATOM     28  F   UNL     1      13.011  36.469  99.403  1.00  0.00    -0.125 F 
ENDBRANCH  16  18
ENDBRANCH   2  12
TORSDOF 3
ENDMDL
MODEL 19
REMARK VINA RESULT:    -6.779      4.457      6.174
REMARK INTER + INTRA:          -8.536
REMARK INTER:                  -7.968
REMARK INTRA:                  -0.568
REMARK UNBOUND:                -0.568
REMARK SMILES O=C(Nc1ccc2c(c1)OC(F)(F)O2)Nc1ccc(Cl)c(C(F)(F)F)c1
REMARK SMILES IDX 20 1 16 2 21 3 26 4 17 5 19 6 18 7 22 8 23 9 24 10 25 11
REMARK SMILES IDX 15 12 2 13 1 15 3 16 4 18 9 19 5 20 8 21 6 22 10 23 7 24
REMARK SMILES IDX 11 25 14 26 12 27 13 28
REMARK H PARENT 15 14 3 17
REMARK Flexibility Score: inf
ROOT
ATOM      1  Cl  UNL     1      14.923  37.123  99.022  1.00  0.00    -0.084 Cl
ATOM      2  C   UNL     1      12.003  40.477  99.806  1.00  0.00     0.043 A 
ATOM      3  C   UNL     1      13.505  38.785 100.652  1.00  0.00     0.076 A 
ATOM      4  C   UNL     1      12.602  39.822 100.882  1.00  0.00     0.040 A 
ATOM      5  C   UNL     1      12.308  40.095  98.499  1.00  0.00     0.028 A 
ATOM      6  C   UNL     1      13.809  38.401  99.346  1.00  0.00     0.053 A 
ATOM      7  C   UNL     1      13.211  39.057  98.269  1.00  0.00     0.023 A 
ENDROOT
BRANCH   3   8
ATOM      8  C   UNL     1      14.126  38.109 101.832  1.00  0.00     0.417 C 
ATOM      9  F   UNL     1      15.488  38.180 101.816  1.00  0.00    -0.166 F 
ATOM     10  F   UNL     1      13.742  38.642 103.028  1.00  0.00    -0.166 F 
ATOM     11  F   UNL     1      13.826  36.781 101.919  1.00  0.00    -0.166 F 
ENDBRANCH   3   8
BRANCH   2  12
ATOM     12  N   UNL     1      11.087  41.529 100.039  1.00  0.00    -0.308 N 
ATOM     13  C   UNL     1      11.362  42.899 100.181  1.00  0.00     0.323 C 
ATOM     14  H   UNL     1      10.112  41.250 100.112  1.00  0.00     0.171 HD
ATOM     15  O   UNL     1      12.476  43.410 100.122  1.00  0.00    -0.248 OA
ATOM     16  N   UNL     1      10.158  43.613 100.403  1.00  0.00    -0.308 N 
ATOM     17  H   UNL     1       9.309  43.055 100.427  1.00  0.00     0.171 HD
BRANCH  16  18
ATOM     18  C   UNL     1       9.982  44.984 100.594  1.00  0.00     0.046 A 
ATOM     19  C   UNL     1      10.149  45.532 101.869  1.00  0.00     0.077 A 
ATOM     20  C   UNL     1       9.637  45.801  99.503  1.00  0.00     0.030 A 
ATOM     21  C   UNL     1       9.964  46.892 102.010  1.00  0.00     0.174 A 
ATOM     22  C   UNL     1       9.456  47.175  99.672  1.00  0.00     0.053 A 
ATOM     23  O   UNL     1      10.084  47.597 103.168  1.00  0.00    -0.395 OA
ATOM     24  C   UNL     1       9.627  47.693 100.940  1.00  0.00     0.172 A 
ATOM     25  C   UNL     1       9.781  48.919 102.697  1.00  0.00     0.586 C 
ATOM     26  O   UNL     1       9.493  49.001 101.293  1.00  0.00    -0.395 OA
ATOM     27  F   UNL     1      10.836  49.727 102.970  1.00  0.00    -0.125 F 
ATOM     28  F   UNL     1       8.714  49.393 103.387  1.00  0.00    -0.125 F 
ENDBRANCH  16  18
ENDBRANCH   2  12
TORSDOF 3
ENDMDL
