REMARK SMILES O=C(Nc1ccc2c(c1)OC(F)(F)O2)Nc1ccc(Cl)c(C(F)(F)F)c1
REMARK SMILES IDX 20 1 16 2 21 3 26 4 17 5 19 6 18 7 22 8 23 9 24 10 25 11
REMARK SMILES IDX 15 12 2 13 1 15 3 16 4 18 9 19 5 20 8 21 6 22 10 23 7 24
REMARK SMILES IDX 11 25 14 26 12 27 13 28
REMARK H PARENT 15 14 3 17
REMARK Flexibility Score: inf
ROOT
ATOM      1  Cl  UNL     1      17.697  33.223 102.522  1.00  0.00    -0.084 Cl
ATOM      2  C   UNL     1      14.997  36.298 100.613  1.00  0.00     0.043 A 
ATOM      3  C   UNL     1      16.075  34.137 100.532  1.00  0.00     0.076 A 
ATOM      4  C   UNL     1      15.242  35.094  99.952  1.00  0.00     0.040 A 
ATOM      5  C   UNL     1      15.585  36.545 101.855  1.00  0.00     0.028 A 
ATOM      6  C   UNL     1      16.663  34.384 101.772  1.00  0.00     0.053 A 
ATOM      7  C   UNL     1      16.418  35.587 102.434  1.00  0.00     0.023 A 
ENDROOT
BRANCH   3   8
ATOM      8  C   UNL     1      16.311  32.859  99.793  1.00  0.00     0.417 C 
ATOM      9  F   UNL     1      15.663  32.824  98.594  1.00  0.00    -0.166 F 
ATOM     10  F   UNL     1      17.627  32.630  99.509  1.00  0.00    -0.166 F 
ATOM     11  F   UNL     1      15.893  31.753 100.472  1.00  0.00    -0.166 F 
ENDBRANCH   3   8
BRANCH   2  12
ATOM     12  N   UNL     1      14.154  37.269 100.025  1.00  0.00    -0.308 N 
ATOM     13  C   UNL     1      13.788  38.523 100.541  1.00  0.00     0.323 C 
ATOM     14  H   UNL     1      13.770  37.020  99.117  1.00  0.00     0.171 HD
ATOM     15  O   UNL     1      14.155  38.983 101.617  1.00  0.00    -0.248 OA
ATOM     16  N   UNL     1      12.925  39.186  99.633  1.00  0.00    -0.308 N 
ATOM     17  H   UNL     1      12.706  38.680  98.779  1.00  0.00     0.171 HD
BRANCH  16  18
ATOM     18  C   UNL     1      12.333  40.444  99.755  1.00  0.00     0.046 A 
ATOM     19  C   UNL     1      12.572  41.212 100.897  1.00  0.00     0.077 A 
ATOM     20  C   UNL     1      11.503  40.925  98.729  1.00  0.00     0.030 A 
ATOM     21  C   UNL     1      11.966  42.449 100.973  1.00  0.00     0.174 A 
ATOM     22  C   UNL     1      10.901  42.181  98.829  1.00  0.00     0.053 A 
ATOM     23  O   UNL     1      12.082  43.333 102.003  1.00  0.00    -0.395 OA
ATOM     24  C   UNL     1      11.152  42.922  99.966  1.00  0.00     0.172 A 
ATOM     25  C   UNL     1      11.250  44.400 101.523  1.00  0.00     0.586 C 
ATOM     26  O   UNL     1      10.656  44.161 100.238  1.00  0.00    -0.395 OA
ATOM     27  F   UNL     1      11.995  45.531 101.451  1.00  0.00    -0.125 F 
ATOM     28  F   UNL     1      10.260  44.618 102.424  1.00  0.00    -0.125 F 
ENDBRANCH  16  18
ENDBRANCH   2  12
TORSDOF 3
