MODEL 1
REMARK VINA RESULT:    -7.724      0.000      0.000
REMARK INTER + INTRA:          -9.449
REMARK INTER:                  -9.346
REMARK INTRA:                  -0.102
REMARK UNBOUND:                -0.371
REMARK SMILES O=C(Nc1ccc2c(c1)OC(F)(F)O2)Nc1ccc(Cl)c(C(F)(F)F)c1
REMARK SMILES IDX 20 1 16 2 21 3 26 4 17 5 19 6 18 7 22 8 23 9 24 10 25 11
REMARK SMILES IDX 15 12 2 13 1 15 3 16 4 18 9 19 5 20 8 21 6 22 10 23 7 24
REMARK SMILES IDX 11 25 14 26 12 27 13 28
REMARK H PARENT 15 14 3 17
REMARK Flexibility Score: inf
ROOT
ATOM      1  Cl  UNL     1      26.936  -0.454  15.363  1.00  0.00    -0.084 Cl
ATOM      2  C   UNL     1      23.026   1.090  13.715  1.00  0.00     0.043 A 
ATOM      3  C   UNL     1      24.416  -0.773  14.374  1.00  0.00     0.076 A 
ATOM      4  C   UNL     1      23.213  -0.283  13.867  1.00  0.00     0.040 A 
ATOM      5  C   UNL     1      24.043   1.976  14.070  1.00  0.00     0.028 A 
ATOM      6  C   UNL     1      25.434   0.113  14.729  1.00  0.00     0.053 A 
ATOM      7  C   UNL     1      25.248   1.488  14.578  1.00  0.00     0.023 A 
ENDROOT
BRANCH   3   8
ATOM      8  C   UNL     1      24.577  -2.251  14.523  1.00  0.00     0.417 C 
ATOM      9  F   UNL     1      23.663  -2.951  13.791  1.00  0.00    -0.166 F 
ATOM     10  F   UNL     1      25.798  -2.709  14.125  1.00  0.00    -0.166 F 
ATOM     11  F   UNL     1      24.430  -2.686  15.808  1.00  0.00    -0.166 F 
ENDBRANCH   3   8
BRANCH   2  12
ATOM     12  N   UNL     1      21.805   1.586  13.199  1.00  0.00    -0.308 N 
ATOM     13  C   UNL     1      20.972   0.997  12.236  1.00  0.00     0.323 C 
ATOM     14  H   UNL     1      21.503   2.480  13.578  1.00  0.00     0.171 HD
ATOM     15  O   UNL     1      21.181  -0.075  11.675  1.00  0.00    -0.248 OA
ATOM     16  N   UNL     1      19.845   1.822  12.000  1.00  0.00    -0.308 N 
ATOM     17  H   UNL     1      19.805   2.684  12.539  1.00  0.00     0.171 HD
BRANCH  16  18
ATOM     18  C   UNL     1      18.779   1.613  11.125  1.00  0.00     0.046 A 
ATOM     19  C   UNL     1      17.564   1.128  11.619  1.00  0.00     0.077 A 
ATOM     20  C   UNL     1      18.935   1.891   9.756  1.00  0.00     0.030 A 
ATOM     21  C   UNL     1      16.537   0.937  10.718  1.00  0.00     0.174 A 
ATOM     22  C   UNL     1      17.879   1.689   8.864  1.00  0.00     0.053 A 
ATOM     23  O   UNL     1      15.292   0.475  11.014  1.00  0.00    -0.395 OA
ATOM     24  C   UNL     1      16.691   1.211   9.376  1.00  0.00     0.172 A 
ATOM     25  C   UNL     1      14.694   0.491   9.709  1.00  0.00     0.586 C 
ATOM     26  O   UNL     1      15.560   0.954   8.662  1.00  0.00    -0.395 OA
ATOM     27  F   UNL     1      13.596   1.286   9.746  1.00  0.00    -0.125 F 
ATOM     28  F   UNL     1      14.281  -0.764   9.406  1.00  0.00    -0.125 F 
ENDBRANCH  16  18
ENDBRANCH   2  12
TORSDOF 3
ENDMDL
MODEL 2
REMARK VINA RESULT:    -7.470      4.206     10.109
REMARK INTER + INTRA:          -9.150
REMARK INTER:                  -8.818
REMARK INTRA:                  -0.332
REMARK UNBOUND:                -0.371
REMARK SMILES O=C(Nc1ccc2c(c1)OC(F)(F)O2)Nc1ccc(Cl)c(C(F)(F)F)c1
REMARK SMILES IDX 20 1 16 2 21 3 26 4 17 5 19 6 18 7 22 8 23 9 24 10 25 11
REMARK SMILES IDX 15 12 2 13 1 15 3 16 4 18 9 19 5 20 8 21 6 22 10 23 7 24
REMARK SMILES IDX 11 25 14 26 12 27 13 28
REMARK H PARENT 15 14 3 17
REMARK Flexibility Score: inf
ROOT
ATOM      1  Cl  UNL     1      11.337   2.705   9.201  1.00  0.00    -0.084 Cl
ATOM      2  C   UNL     1      15.589   1.190   9.317  1.00  0.00     0.043 A 
ATOM      3  C   UNL     1      13.939   2.690   8.388  1.00  0.00     0.076 A 
ATOM      4  C   UNL     1      15.249   2.214   8.435  1.00  0.00     0.040 A 
ATOM      5  C   UNL     1      14.619   0.641  10.155  1.00  0.00     0.028 A 
ATOM      6  C   UNL     1      12.968   2.141   9.226  1.00  0.00     0.053 A 
ATOM      7  C   UNL     1      13.308   1.116  10.110  1.00  0.00     0.023 A 
ENDROOT
BRANCH   3   8
ATOM      8  C   UNL     1      13.615   3.790   7.430  1.00  0.00     0.417 C 
ATOM      9  F   UNL     1      12.790   3.379   6.425  1.00  0.00    -0.166 F 
ATOM     10  F   UNL     1      12.987   4.853   8.011  1.00  0.00    -0.166 F 
ATOM     11  F   UNL     1      14.713   4.315   6.814  1.00  0.00    -0.166 F 
ENDBRANCH   3   8
BRANCH   2  12
ATOM     12  N   UNL     1      16.918   0.706   9.362  1.00  0.00    -0.308 N 
ATOM     13  C   UNL     1      17.855   0.849  10.396  1.00  0.00     0.323 C 
ATOM     14  H   UNL     1      17.222   0.193   8.539  1.00  0.00     0.171 HD
ATOM     15  O   UNL     1      17.659   1.436  11.456  1.00  0.00    -0.248 OA
ATOM     16  N   UNL     1      19.071   0.216  10.040  1.00  0.00    -0.308 N 
ATOM     17  H   UNL     1      19.087  -0.231   9.126  1.00  0.00     0.171 HD
BRANCH  16  18
ATOM     18  C   UNL     1      20.253   0.122  10.774  1.00  0.00     0.046 A 
ATOM     19  C   UNL     1      20.218  -0.375  12.081  1.00  0.00     0.077 A 
ATOM     20  C   UNL     1      21.468   0.525  10.194  1.00  0.00     0.030 A 
ATOM     21  C   UNL     1      21.412  -0.450  12.769  1.00  0.00     0.174 A 
ATOM     22  C   UNL     1      22.663   0.438  10.913  1.00  0.00     0.053 A 
ATOM     23  O   UNL     1      21.571  -0.904  14.042  1.00  0.00    -0.395 OA
ATOM     24  C   UNL     1      22.602  -0.054  12.199  1.00  0.00     0.172 A 
ATOM     25  C   UNL     1      22.989  -0.743  14.197  1.00  0.00     0.586 C 
ATOM     26  O   UNL     1      23.659  -0.211  13.045  1.00  0.00    -0.395 OA
ATOM     27  F   UNL     1      23.531  -1.951  14.493  1.00  0.00    -0.125 F 
ATOM     28  F   UNL     1      23.219   0.078  15.251  1.00  0.00    -0.125 F 
ENDBRANCH  16  18
ENDBRANCH   2  12
TORSDOF 3
ENDMDL
MODEL 3
REMARK VINA RESULT:    -7.351      3.911      9.488
REMARK INTER + INTRA:          -9.011
REMARK INTER:                  -8.462
REMARK INTRA:                  -0.549
REMARK UNBOUND:                -0.371
REMARK SMILES O=C(Nc1ccc2c(c1)OC(F)(F)O2)Nc1ccc(Cl)c(C(F)(F)F)c1
REMARK SMILES IDX 20 1 16 2 21 3 26 4 17 5 19 6 18 7 22 8 23 9 24 10 25 11
REMARK SMILES IDX 15 12 2 13 1 15 3 16 4 18 9 19 5 20 8 21 6 22 10 23 7 24
REMARK SMILES IDX 11 25 14 26 12 27 13 28
REMARK H PARENT 15 14 3 17
REMARK Flexibility Score: inf
ROOT
ATOM      1  Cl  UNL     1      15.796   0.512   8.331  1.00  0.00    -0.084 Cl
ATOM      2  C   UNL     1      18.878  -0.031  11.585  1.00  0.00     0.043 A 
ATOM      3  C   UNL     1      17.438  -0.993   9.901  1.00  0.00     0.076 A 
ATOM      4  C   UNL     1      18.390  -1.148  10.908  1.00  0.00     0.040 A 
ATOM      5  C   UNL     1      18.413   1.242  11.257  1.00  0.00     0.028 A 
ATOM      6  C   UNL     1      16.972   0.280   9.572  1.00  0.00     0.053 A 
ATOM      7  C   UNL     1      17.459   1.398  10.250  1.00  0.00     0.023 A 
ENDROOT
BRANCH   3   8
ATOM      8  C   UNL     1      16.942  -2.215   9.197  1.00  0.00     0.417 C 
ATOM      9  F   UNL     1      15.611  -2.431   9.403  1.00  0.00    -0.166 F 
ATOM     10  F   UNL     1      17.103  -2.167   7.844  1.00  0.00    -0.166 F 
ATOM     11  F   UNL     1      17.566  -3.361   9.594  1.00  0.00    -0.166 F 
ENDBRANCH   3   8
BRANCH   2  12
ATOM     12  N   UNL     1      19.843  -0.189  12.608  1.00  0.00    -0.308 N 
ATOM     13  C   UNL     1      21.223  -0.402  12.469  1.00  0.00     0.323 C 
ATOM     14  H   UNL     1      19.483  -0.140  13.558  1.00  0.00     0.171 HD
ATOM     15  O   UNL     1      21.824  -0.488  11.402  1.00  0.00    -0.248 OA
ATOM     16  N   UNL     1      21.828  -0.507  13.744  1.00  0.00    -0.308 N 
ATOM     17  H   UNL     1      21.203  -0.416  14.542  1.00  0.00     0.171 HD
BRANCH  16  18
ATOM     18  C   UNL     1      23.171  -0.719  14.058  1.00  0.00     0.046 A 
ATOM     19  C   UNL     1      23.964   0.357  14.466  1.00  0.00     0.077 A 
ATOM     20  C   UNL     1      23.714  -2.012  13.960  1.00  0.00     0.030 A 
ATOM     21  C   UNL     1      25.286   0.101  14.766  1.00  0.00     0.174 A 
ATOM     22  C   UNL     1      25.057  -2.245  14.271  1.00  0.00     0.053 A 
ATOM     23  O   UNL     1      26.203   1.019  15.177  1.00  0.00    -0.395 OA
ATOM     24  C   UNL     1      25.818  -1.167  14.671  1.00  0.00     0.172 A 
ATOM     25  C   UNL     1      27.358   0.180  15.324  1.00  0.00     0.586 C 
ATOM     26  O   UNL     1      27.136  -1.203  15.011  1.00  0.00    -0.395 OA
ATOM     27  F   UNL     1      27.799   0.269  16.604  1.00  0.00    -0.125 F 
ATOM     28  F   UNL     1      28.342   0.653  14.520  1.00  0.00    -0.125 F 
ENDBRANCH  16  18
ENDBRANCH   2  12
TORSDOF 3
ENDMDL
MODEL 4
REMARK VINA RESULT:    -7.314      6.407      9.655
REMARK INTER + INTRA:          -8.967
REMARK INTER:                  -8.412
REMARK INTRA:                  -0.556
REMARK UNBOUND:                -0.371
REMARK SMILES O=C(Nc1ccc2c(c1)OC(F)(F)O2)Nc1ccc(Cl)c(C(F)(F)F)c1
REMARK SMILES IDX 20 1 16 2 21 3 26 4 17 5 19 6 18 7 22 8 23 9 24 10 25 11
REMARK SMILES IDX 15 12 2 13 1 15 3 16 4 18 9 19 5 20 8 21 6 22 10 23 7 24
REMARK SMILES IDX 11 25 14 26 12 27 13 28
REMARK H PARENT 15 14 3 17
REMARK Flexibility Score: inf
ROOT
ATOM      1  Cl  UNL     1      19.566  12.001  11.435  1.00  0.00    -0.084 Cl
ATOM      2  C   UNL     1      20.649   7.645  10.947  1.00  0.00     0.043 A 
ATOM      3  C   UNL     1      19.196   9.336  11.876  1.00  0.00     0.076 A 
ATOM      4  C   UNL     1      19.540   7.994  11.717  1.00  0.00     0.040 A 
ATOM      5  C   UNL     1      21.414   8.637  10.335  1.00  0.00     0.028 A 
ATOM      6  C   UNL     1      19.961  10.330  11.264  1.00  0.00     0.053 A 
ATOM      7  C   UNL     1      21.071   9.980  10.493  1.00  0.00     0.023 A 
ENDROOT
BRANCH   3   8
ATOM      8  C   UNL     1      18.000   9.670  12.707  1.00  0.00     0.417 C 
ATOM      9  F   UNL     1      18.328  10.347  13.845  1.00  0.00    -0.166 F 
ATOM     10  F   UNL     1      17.089  10.454  12.062  1.00  0.00    -0.166 F 
ATOM     11  F   UNL     1      17.302   8.573  13.121  1.00  0.00    -0.166 F 
ENDBRANCH   3   8
BRANCH   2  12
ATOM     12  N   UNL     1      20.999   6.283  10.788  1.00  0.00    -0.308 N 
ATOM     13  C   UNL     1      21.690   5.457  11.689  1.00  0.00     0.323 C 
ATOM     14  H   UNL     1      20.711   5.859   9.910  1.00  0.00     0.171 HD
ATOM     15  O   UNL     1      22.109   5.802  12.789  1.00  0.00    -0.248 OA
ATOM     16  N   UNL     1      21.835   4.159  11.142  1.00  0.00    -0.308 N 
ATOM     17  H   UNL     1      21.436   4.019  10.217  1.00  0.00     0.171 HD
BRANCH  16  18
ATOM     18  C   UNL     1      22.454   3.041  11.703  1.00  0.00     0.046 A 
ATOM     19  C   UNL     1      21.707   2.154  12.483  1.00  0.00     0.077 A 
ATOM     20  C   UNL     1      23.823   2.817  11.477  1.00  0.00     0.030 A 
ATOM     21  C   UNL     1      22.360   1.063  13.016  1.00  0.00     0.174 A 
ATOM     22  C   UNL     1      24.462   1.703  12.029  1.00  0.00     0.053 A 
ATOM     23  O   UNL     1      21.798   0.099  13.796  1.00  0.00    -0.395 OA
ATOM     24  C   UNL     1      23.702   0.843  12.794  1.00  0.00     0.172 A 
ATOM     25  C   UNL     1      22.940  -0.737  14.033  1.00  0.00     0.586 C 
ATOM     26  O   UNL     1      24.151  -0.287  13.408  1.00  0.00    -0.395 OA
ATOM     27  F   UNL     1      22.661  -1.987  13.585  1.00  0.00    -0.125 F 
ATOM     28  F   UNL     1      23.147  -0.820  15.370  1.00  0.00    -0.125 F 
ENDBRANCH  16  18
ENDBRANCH   2  12
TORSDOF 3
ENDMDL
MODEL 5
REMARK VINA RESULT:    -7.292      1.832      2.174
REMARK INTER + INTRA:          -8.941
REMARK INTER:                  -8.474
REMARK INTRA:                  -0.467
REMARK UNBOUND:                -0.371
REMARK SMILES O=C(Nc1ccc2c(c1)OC(F)(F)O2)Nc1ccc(Cl)c(C(F)(F)F)c1
REMARK SMILES IDX 20 1 16 2 21 3 26 4 17 5 19 6 18 7 22 8 23 9 24 10 25 11
REMARK SMILES IDX 15 12 2 13 1 15 3 16 4 18 9 19 5 20 8 21 6 22 10 23 7 24
REMARK SMILES IDX 11 25 14 26 12 27 13 28
REMARK H PARENT 15 14 3 17
REMARK Flexibility Score: inf
ROOT
ATOM      1  Cl  UNL     1      25.949  -3.461  12.843  1.00  0.00    -0.084 Cl
ATOM      2  C   UNL     1      22.514  -0.689  11.889  1.00  0.00     0.043 A 
ATOM      3  C   UNL     1      23.907  -1.790  13.528  1.00  0.00     0.076 A 
ATOM      4  C   UNL     1      22.849  -0.935  13.221  1.00  0.00     0.040 A 
ATOM      5  C   UNL     1      23.237  -1.299  10.864  1.00  0.00     0.028 A 
ATOM      6  C   UNL     1      24.631  -2.400  12.503  1.00  0.00     0.053 A 
ATOM      7  C   UNL     1      24.296  -2.154  11.171  1.00  0.00     0.023 A 
ENDROOT
BRANCH   3   8
ATOM      8  C   UNL     1      24.236  -2.026  14.967  1.00  0.00     0.417 C 
ATOM      9  F   UNL     1      24.243  -3.351  15.289  1.00  0.00    -0.166 F 
ATOM     10  F   UNL     1      25.462  -1.551  15.331  1.00  0.00    -0.166 F 
ATOM     11  F   UNL     1      23.353  -1.442  15.828  1.00  0.00    -0.166 F 
ENDBRANCH   3   8
BRANCH   2  12
ATOM     12  N   UNL     1      21.439   0.176  11.578  1.00  0.00    -0.308 N 
ATOM     13  C   UNL     1      20.245  -0.134  10.908  1.00  0.00     0.323 C 
ATOM     14  H   UNL     1      21.555   1.140  11.881  1.00  0.00     0.171 HD
ATOM     15  O   UNL     1      19.942  -1.242  10.476  1.00  0.00    -0.248 OA
ATOM     16  N   UNL     1      19.435   1.022  10.801  1.00  0.00    -0.308 N 
ATOM     17  H   UNL     1      19.818   1.872  11.207  1.00  0.00     0.171 HD
BRANCH  16  18
ATOM     18  C   UNL     1      18.177   1.154  10.212  1.00  0.00     0.046 A 
ATOM     19  C   UNL     1      17.033   0.817  10.941  1.00  0.00     0.077 A 
ATOM     20  C   UNL     1      18.072   1.625   8.892  1.00  0.00     0.030 A 
ATOM     21  C   UNL     1      15.811   0.964  10.318  1.00  0.00     0.174 A 
ATOM     22  C   UNL     1      16.821   1.765   8.284  1.00  0.00     0.053 A 
ATOM     23  O   UNL     1      14.597   0.687  10.868  1.00  0.00    -0.395 OA
ATOM     24  C   UNL     1      15.708   1.425   9.024  1.00  0.00     0.172 A 
ATOM     25  C   UNL     1      13.735   1.026   9.772  1.00  0.00     0.586 C 
ATOM     26  O   UNL     1      14.416   1.496   8.600  1.00  0.00    -0.395 OA
ATOM     27  F   UNL     1      12.869   1.986  10.184  1.00  0.00    -0.125 F 
ATOM     28  F   UNL     1      13.005  -0.067   9.440  1.00  0.00    -0.125 F 
ENDBRANCH  16  18
ENDBRANCH   2  12
TORSDOF 3
ENDMDL
MODEL 6
REMARK VINA RESULT:    -7.272      4.023      9.620
REMARK INTER + INTRA:          -8.919
REMARK INTER:                  -8.532
REMARK INTRA:                  -0.387
REMARK UNBOUND:                -0.371
REMARK SMILES O=C(Nc1ccc2c(c1)OC(F)(F)O2)Nc1ccc(Cl)c(C(F)(F)F)c1
REMARK SMILES IDX 20 1 16 2 21 3 26 4 17 5 19 6 18 7 22 8 23 9 24 10 25 11
REMARK SMILES IDX 15 12 2 13 1 15 3 16 4 18 9 19 5 20 8 21 6 22 10 23 7 24
REMARK SMILES IDX 11 25 14 26 12 27 13 28
REMARK H PARENT 15 14 3 17
REMARK Flexibility Score: inf
ROOT
ATOM      1  Cl  UNL     1      15.818   1.630   7.738  1.00  0.00    -0.084 Cl
ATOM      2  C   UNL     1      18.875   1.341  11.049  1.00  0.00     0.043 A 
ATOM      3  C   UNL     1      18.309   1.978   8.789  1.00  0.00     0.076 A 
ATOM      4  C   UNL     1      19.244   1.884   9.819  1.00  0.00     0.040 A 
ATOM      5  C   UNL     1      17.570   0.890  11.249  1.00  0.00     0.028 A 
ATOM      6  C   UNL     1      17.004   1.528   8.988  1.00  0.00     0.053 A 
ATOM      7  C   UNL     1      16.634   0.984  10.219  1.00  0.00     0.023 A 
ENDROOT
BRANCH   3   8
ATOM      8  C   UNL     1      18.743   2.569   7.486  1.00  0.00     0.417 C 
ATOM      9  F   UNL     1      19.991   3.114   7.552  1.00  0.00    -0.166 F 
ATOM     10  F   UNL     1      18.789   1.664   6.466  1.00  0.00    -0.166 F 
ATOM     11  F   UNL     1      17.927   3.569   7.044  1.00  0.00    -0.166 F 
ENDBRANCH   3   8
BRANCH   2  12
ATOM     12  N   UNL     1      19.824   1.243  12.094  1.00  0.00    -0.308 N 
ATOM     13  C   UNL     1      21.002   0.480  12.123  1.00  0.00     0.323 C 
ATOM     14  H   UNL     1      19.619   1.798  12.921  1.00  0.00     0.171 HD
ATOM     15  O   UNL     1      21.401  -0.244  11.217  1.00  0.00    -0.248 OA
ATOM     16  N   UNL     1      21.668   0.666  13.359  1.00  0.00    -0.308 N 
ATOM     17  H   UNL     1      21.217   1.297  14.017  1.00  0.00     0.171 HD
BRANCH  16  18
ATOM     18  C   UNL     1      22.865   0.098  13.798  1.00  0.00     0.046 A 
ATOM     19  C   UNL     1      23.961   0.920  14.072  1.00  0.00     0.077 A 
ATOM     20  C   UNL     1      22.956  -1.295  13.962  1.00  0.00     0.030 A 
ATOM     21  C   UNL     1      25.123   0.315  14.504  1.00  0.00     0.174 A 
ATOM     22  C   UNL     1      24.144  -1.884  14.401  1.00  0.00     0.053 A 
ATOM     23  O   UNL     1      26.285   0.950  14.816  1.00  0.00    -0.395 OA
ATOM     24  C   UNL     1      25.212  -1.051  14.664  1.00  0.00     0.172 A 
ATOM     25  C   UNL     1      27.101  -0.171  15.185  1.00  0.00     0.586 C 
ATOM     26  O   UNL     1      26.442  -1.443  15.099  1.00  0.00    -0.395 OA
ATOM     27  F   UNL     1      27.532   0.007  16.459  1.00  0.00    -0.125 F 
ATOM     28  F   UNL     1      28.195  -0.194  14.384  1.00  0.00    -0.125 F 
ENDBRANCH  16  18
ENDBRANCH   2  12
TORSDOF 3
ENDMDL
MODEL 7
REMARK VINA RESULT:    -7.212      5.672      9.310
REMARK INTER + INTRA:          -8.848
REMARK INTER:                  -8.550
REMARK INTRA:                  -0.298
REMARK UNBOUND:                -0.371
REMARK SMILES O=C(Nc1ccc2c(c1)OC(F)(F)O2)Nc1ccc(Cl)c(C(F)(F)F)c1
REMARK SMILES IDX 20 1 16 2 21 3 26 4 17 5 19 6 18 7 22 8 23 9 24 10 25 11
REMARK SMILES IDX 15 12 2 13 1 15 3 16 4 18 9 19 5 20 8 21 6 22 10 23 7 24
REMARK SMILES IDX 11 25 14 26 12 27 13 28
REMARK H PARENT 15 14 3 17
REMARK Flexibility Score: inf
ROOT
ATOM      1  Cl  UNL     1      20.770  10.205  10.236  1.00  0.00    -0.084 Cl
ATOM      2  C   UNL     1      21.527   6.352  12.466  1.00  0.00     0.043 A 
ATOM      3  C   UNL     1      20.079   8.223  11.975  1.00  0.00     0.076 A 
ATOM      4  C   UNL     1      20.324   7.031  12.657  1.00  0.00     0.040 A 
ATOM      5  C   UNL     1      22.486   6.864  11.592  1.00  0.00     0.028 A 
ATOM      6  C   UNL     1      21.038   8.735  11.100  1.00  0.00     0.053 A 
ATOM      7  C   UNL     1      22.242   8.056  10.909  1.00  0.00     0.023 A 
ENDROOT
BRANCH   3   8
ATOM      8  C   UNL     1      18.778   8.920  12.206  1.00  0.00     0.417 C 
ATOM      9  F   UNL     1      17.927   8.192  12.985  1.00  0.00    -0.166 F 
ATOM     10  F   UNL     1      18.908  10.126  12.829  1.00  0.00    -0.166 F 
ATOM     11  F   UNL     1      18.091   9.182  11.056  1.00  0.00    -0.166 F 
ENDBRANCH   3   8
BRANCH   2  12
ATOM     12  N   UNL     1      21.776   5.145  13.160  1.00  0.00    -0.308 N 
ATOM     13  C   UNL     1      22.011   3.870  12.621  1.00  0.00     0.323 C 
ATOM     14  H   UNL     1      21.784   5.219  14.174  1.00  0.00     0.171 HD
ATOM     15  O   UNL     1      22.037   3.599  11.424  1.00  0.00    -0.248 OA
ATOM     16  N   UNL     1      22.214   2.933  13.663  1.00  0.00    -0.308 N 
ATOM     17  H   UNL     1      22.163   3.303  14.609  1.00  0.00     0.171 HD
BRANCH  16  18
ATOM     18  C   UNL     1      22.476   1.566  13.568  1.00  0.00     0.046 A 
ATOM     19  C   UNL     1      23.596   1.030  14.209  1.00  0.00     0.077 A 
ATOM     20  C   UNL     1      21.611   0.741  12.828  1.00  0.00     0.030 A 
ATOM     21  C   UNL     1      23.816  -0.326  14.088  1.00  0.00     0.174 A 
ATOM     22  C   UNL     1      21.856  -0.631  12.721  1.00  0.00     0.053 A 
ATOM     23  O   UNL     1      24.848  -1.020  14.640  1.00  0.00    -0.395 OA
ATOM     24  C   UNL     1      22.967  -1.135  13.363  1.00  0.00     0.172 A 
ATOM     25  C   UNL     1      24.546  -2.344  14.176  1.00  0.00     0.586 C 
ATOM     26  O   UNL     1      23.362  -2.439  13.370  1.00  0.00    -0.395 OA
ATOM     27  F   UNL     1      24.404  -3.158  15.252  1.00  0.00    -0.125 F 
ATOM     28  F   UNL     1      25.599  -2.801  13.454  1.00  0.00    -0.125 F 
ENDBRANCH  16  18
ENDBRANCH   2  12
TORSDOF 3
ENDMDL
MODEL 8
REMARK VINA RESULT:    -7.193      3.943      9.761
REMARK INTER + INTRA:          -8.825
REMARK INTER:                  -8.309
REMARK INTRA:                  -0.515
REMARK UNBOUND:                -0.371
REMARK SMILES O=C(Nc1ccc2c(c1)OC(F)(F)O2)Nc1ccc(Cl)c(C(F)(F)F)c1
REMARK SMILES IDX 20 1 16 2 21 3 26 4 17 5 19 6 18 7 22 8 23 9 24 10 25 11
REMARK SMILES IDX 15 12 2 13 1 15 3 16 4 18 9 19 5 20 8 21 6 22 10 23 7 24
REMARK SMILES IDX 11 25 14 26 12 27 13 28
REMARK H PARENT 15 14 3 17
REMARK Flexibility Score: inf
ROOT
ATOM      1  Cl  UNL     1      13.009   3.631   7.315  1.00  0.00    -0.084 Cl
ATOM      2  C   UNL     1      16.592   1.218   8.628  1.00  0.00     0.043 A 
ATOM      3  C   UNL     1      14.286   1.862   8.949  1.00  0.00     0.076 A 
ATOM      4  C   UNL     1      15.399   1.121   9.344  1.00  0.00     0.040 A 
ATOM      5  C   UNL     1      16.672   2.055   7.517  1.00  0.00     0.028 A 
ATOM      6  C   UNL     1      14.365   2.701   7.837  1.00  0.00     0.053 A 
ATOM      7  C   UNL     1      15.559   2.797   7.120  1.00  0.00     0.023 A 
ENDROOT
BRANCH   3   8
ATOM      8  C   UNL     1      13.025   1.730   9.742  1.00  0.00     0.417 C 
ATOM      9  F   UNL     1      13.217   1.071  10.920  1.00  0.00    -0.166 F 
ATOM     10  F   UNL     1      12.464   2.928  10.075  1.00  0.00    -0.166 F 
ATOM     11  F   UNL     1      12.044   1.042   9.090  1.00  0.00    -0.166 F 
ENDBRANCH   3   8
BRANCH   2  12
ATOM     12  N   UNL     1      17.722   0.467   9.031  1.00  0.00    -0.308 N 
ATOM     13  C   UNL     1      18.719   0.832   9.948  1.00  0.00     0.323 C 
ATOM     14  H   UNL     1      17.814  -0.448   8.597  1.00  0.00     0.171 HD
ATOM     15  O   UNL     1      18.766   1.894  10.562  1.00  0.00    -0.248 OA
ATOM     16  N   UNL     1      19.673  -0.208  10.066  1.00  0.00    -0.308 N 
ATOM     17  H   UNL     1      19.505  -1.032   9.494  1.00  0.00     0.171 HD
BRANCH  16  18
ATOM     18  C   UNL     1      20.818  -0.256  10.862  1.00  0.00     0.046 A 
ATOM     19  C   UNL     1      20.699  -0.525  12.229  1.00  0.00     0.077 A 
ATOM     20  C   UNL     1      22.079  -0.034  10.284  1.00  0.00     0.030 A 
ATOM     21  C   UNL     1      21.857  -0.562  12.977  1.00  0.00     0.174 A 
ATOM     22  C   UNL     1      23.238  -0.078  11.064  1.00  0.00     0.053 A 
ATOM     23  O   UNL     1      21.935  -0.808  14.314  1.00  0.00    -0.395 OA
ATOM     24  C   UNL     1      23.093  -0.345  12.409  1.00  0.00     0.172 A 
ATOM     25  C   UNL     1      23.354  -0.716  14.509  1.00  0.00     0.586 C 
ATOM     26  O   UNL     1      24.103  -0.427  13.320  1.00  0.00    -0.395 OA
ATOM     27  F   UNL     1      23.797  -1.891  15.024  1.00  0.00    -0.125 F 
ATOM     28  F   UNL     1      23.604   0.252  15.425  1.00  0.00    -0.125 F 
ENDBRANCH  16  18
ENDBRANCH   2  12
TORSDOF 3
ENDMDL
MODEL 9
REMARK VINA RESULT:    -7.193      2.578      3.773
REMARK INTER + INTRA:          -8.825
REMARK INTER:                  -8.263
REMARK INTRA:                  -0.562
REMARK UNBOUND:                -0.371
REMARK SMILES O=C(Nc1ccc2c(c1)OC(F)(F)O2)Nc1ccc(Cl)c(C(F)(F)F)c1
REMARK SMILES IDX 20 1 16 2 21 3 26 4 17 5 19 6 18 7 22 8 23 9 24 10 25 11
REMARK SMILES IDX 15 12 2 13 1 15 3 16 4 18 9 19 5 20 8 21 6 22 10 23 7 24
REMARK SMILES IDX 11 25 14 26 12 27 13 28
REMARK H PARENT 15 14 3 17
REMARK Flexibility Score: inf
ROOT
ATOM      1  Cl  UNL     1      23.653   1.510  14.400  1.00  0.00    -0.084 Cl
ATOM      2  C   UNL     1      20.292   1.304  11.391  1.00  0.00     0.043 A 
ATOM      3  C   UNL     1      22.075   0.208  12.599  1.00  0.00     0.076 A 
ATOM      4  C   UNL     1      21.034   0.157  11.673  1.00  0.00     0.040 A 
ATOM      5  C   UNL     1      20.592   2.503  12.037  1.00  0.00     0.028 A 
ATOM      6  C   UNL     1      22.375   1.408  13.245  1.00  0.00     0.053 A 
ATOM      7  C   UNL     1      21.633   2.556  12.964  1.00  0.00     0.023 A 
ENDROOT
BRANCH   3   8
ATOM      8  C   UNL     1      22.844  -1.043  12.874  1.00  0.00     0.417 C 
ATOM      9  F   UNL     1      22.700  -1.472  14.161  1.00  0.00    -0.166 F 
ATOM     10  F   UNL     1      22.472  -2.096  12.090  1.00  0.00    -0.166 F 
ATOM     11  F   UNL     1      24.188  -0.908  12.680  1.00  0.00    -0.166 F 
ENDBRANCH   3   8
BRANCH   2  12
ATOM     12  N   UNL     1      19.238   1.252  10.449  1.00  0.00    -0.308 N 
ATOM     13  C   UNL     1      17.862   1.128  10.698  1.00  0.00     0.323 C 
ATOM     14  H   UNL     1      19.522   1.313   9.475  1.00  0.00     0.171 HD
ATOM     15  O   UNL     1      17.346   1.042  11.808  1.00  0.00    -0.248 OA
ATOM     16  N   UNL     1      17.148   1.114   9.475  1.00  0.00    -0.308 N 
ATOM     17  H   UNL     1      17.711   1.193   8.631  1.00  0.00     0.171 HD
BRANCH  16  18
ATOM     18  C   UNL     1      15.772   1.007   9.270  1.00  0.00     0.046 A 
ATOM     19  C   UNL     1      15.013   2.160   9.056  1.00  0.00     0.077 A 
ATOM     20  C   UNL     1      15.164  -0.260   9.279  1.00  0.00     0.030 A 
ATOM     21  C   UNL     1      13.656   2.006   8.857  1.00  0.00     0.174 A 
ATOM     22  C   UNL     1      13.787  -0.390   9.074  1.00  0.00     0.053 A 
ATOM     23  O   UNL     1      12.763   3.009   8.635  1.00  0.00    -0.395 OA
ATOM     24  C   UNL     1      13.060   0.764   8.866  1.00  0.00     0.172 A 
ATOM     25  C   UNL     1      11.551   2.251   8.510  1.00  0.00     0.586 C 
ATOM     26  O   UNL     1      11.717   0.832   8.650  1.00  0.00    -0.395 OA
ATOM     27  F   UNL     1      11.005   2.505   7.294  1.00  0.00    -0.125 F 
ATOM     28  F   UNL     1      10.673   2.679   9.450  1.00  0.00    -0.125 F 
ENDBRANCH  16  18
ENDBRANCH   2  12
TORSDOF 3
ENDMDL
MODEL 10
REMARK VINA RESULT:    -7.162      3.893      9.989
REMARK INTER + INTRA:          -8.789
REMARK INTER:                  -8.446
REMARK INTRA:                  -0.343
REMARK UNBOUND:                -0.371
REMARK SMILES O=C(Nc1ccc2c(c1)OC(F)(F)O2)Nc1ccc(Cl)c(C(F)(F)F)c1
REMARK SMILES IDX 20 1 16 2 21 3 26 4 17 5 19 6 18 7 22 8 23 9 24 10 25 11
REMARK SMILES IDX 15 12 2 13 1 15 3 16 4 18 9 19 5 20 8 21 6 22 10 23 7 24
REMARK SMILES IDX 11 25 14 26 12 27 13 28
REMARK H PARENT 15 14 3 17
REMARK Flexibility Score: inf
ROOT
ATOM      1  Cl  UNL     1      11.901  -0.796   8.001  1.00  0.00    -0.084 Cl
ATOM      2  C   UNL     1      16.057   0.493   9.206  1.00  0.00     0.043 A 
ATOM      3  C   UNL     1      13.731   1.038   8.850  1.00  0.00     0.076 A 
ATOM      4  C   UNL     1      15.019   1.423   9.221  1.00  0.00     0.040 A 
ATOM      5  C   UNL     1      15.809  -0.824   8.820  1.00  0.00     0.028 A 
ATOM      6  C   UNL     1      13.481  -0.279   8.464  1.00  0.00     0.053 A 
ATOM      7  C   UNL     1      14.521  -1.211   8.449  1.00  0.00     0.023 A 
ENDROOT
BRANCH   3   8
ATOM      8  C   UNL     1      12.645   2.064   8.881  1.00  0.00     0.417 C 
ATOM      9  F   UNL     1      11.975   2.150   7.696  1.00  0.00    -0.166 F 
ATOM     10  F   UNL     1      11.692   1.820   9.827  1.00  0.00    -0.166 F 
ATOM     11  F   UNL     1      13.096   3.325   9.142  1.00  0.00    -0.166 F 
ENDBRANCH   3   8
BRANCH   2  12
ATOM     12  N   UNL     1      17.364   0.885   9.581  1.00  0.00    -0.308 N 
ATOM     13  C   UNL     1      18.064   0.555  10.752  1.00  0.00     0.323 C 
ATOM     14  H   UNL     1      17.848   1.480   8.913  1.00  0.00     0.171 HD
ATOM     15  O   UNL     1      17.634  -0.149  11.661  1.00  0.00    -0.248 OA
ATOM     16  N   UNL     1      19.347   1.154  10.735  1.00  0.00    -0.308 N 
ATOM     17  H   UNL     1      19.566   1.713   9.914  1.00  0.00     0.171 HD
BRANCH  16  18
ATOM     18  C   UNL     1      20.355   1.083  11.697  1.00  0.00     0.046 A 
ATOM     19  C   UNL     1      20.792  -0.165  12.150  1.00  0.00     0.077 A 
ATOM     20  C   UNL     1      20.923   2.266  12.200  1.00  0.00     0.030 A 
ATOM     21  C   UNL     1      21.791  -0.188  13.101  1.00  0.00     0.174 A 
ATOM     22  C   UNL     1      21.935   2.216  13.163  1.00  0.00     0.053 A 
ATOM     23  O   UNL     1      22.339  -1.303  13.656  1.00  0.00    -0.395 OA
ATOM     24  C   UNL     1      22.348   0.973  13.593  1.00  0.00     0.172 A 
ATOM     25  C   UNL     1      23.292  -0.705  14.546  1.00  0.00     0.586 C 
ATOM     26  O   UNL     1      23.316   0.730  14.521  1.00  0.00    -0.395 OA
ATOM     27  F   UNL     1      24.529  -1.163  14.228  1.00  0.00    -0.125 F 
ATOM     28  F   UNL     1      23.019  -1.111  15.811  1.00  0.00    -0.125 F 
ENDBRANCH  16  18
ENDBRANCH   2  12
TORSDOF 3
ENDMDL
MODEL 11
REMARK VINA RESULT:    -7.137      2.169      2.781
REMARK INTER + INTRA:          -8.759
REMARK INTER:                  -8.209
REMARK INTRA:                  -0.550
REMARK UNBOUND:                -0.371
REMARK SMILES O=C(Nc1ccc2c(c1)OC(F)(F)O2)Nc1ccc(Cl)c(C(F)(F)F)c1
REMARK SMILES IDX 20 1 16 2 21 3 26 4 17 5 19 6 18 7 22 8 23 9 24 10 25 11
REMARK SMILES IDX 15 12 2 13 1 15 3 16 4 18 9 19 5 20 8 21 6 22 10 23 7 24
REMARK SMILES IDX 11 25 14 26 12 27 13 28
REMARK H PARENT 15 14 3 17
REMARK Flexibility Score: inf
ROOT
ATOM      1  Cl  UNL     1      28.167  -2.596  14.082  1.00  0.00    -0.084 Cl
ATOM      2  C   UNL     1      23.820  -1.464  13.617  1.00  0.00     0.043 A 
ATOM      3  C   UNL     1      26.049  -0.903  14.363  1.00  0.00     0.076 A 
ATOM      4  C   UNL     1      24.704  -0.565  14.213  1.00  0.00     0.040 A 
ATOM      5  C   UNL     1      24.280  -2.703  13.171  1.00  0.00     0.028 A 
ATOM      6  C   UNL     1      26.510  -2.142  13.917  1.00  0.00     0.053 A 
ATOM      7  C   UNL     1      25.625  -3.042  13.320  1.00  0.00     0.023 A 
ENDROOT
BRANCH   3   8
ATOM      8  C   UNL     1      26.964   0.088  15.005  1.00  0.00     0.417 C 
ATOM      9  F   UNL     1      26.319   1.233  15.369  1.00  0.00    -0.166 F 
ATOM     10  F   UNL     1      27.561  -0.377  16.140  1.00  0.00    -0.166 F 
ATOM     11  F   UNL     1      27.989   0.484  14.195  1.00  0.00    -0.166 F 
ENDBRANCH   3   8
BRANCH   2  12
ATOM     12  N   UNL     1      22.456  -1.121  13.467  1.00  0.00    -0.308 N 
ATOM     13  C   UNL     1      21.801  -0.665  12.313  1.00  0.00     0.323 C 
ATOM     14  H   UNL     1      21.887  -1.221  14.305  1.00  0.00     0.171 HD
ATOM     15  O   UNL     1      22.330  -0.489  11.219  1.00  0.00    -0.248 OA
ATOM     16  N   UNL     1      20.431  -0.436  12.591  1.00  0.00    -0.308 N 
ATOM     17  H   UNL     1      20.134  -0.626  13.545  1.00  0.00     0.171 HD
BRANCH  16  18
ATOM     18  C   UNL     1      19.431   0.018  11.731  1.00  0.00     0.046 A 
ATOM     19  C   UNL     1      18.465  -0.876  11.260  1.00  0.00     0.077 A 
ATOM     20  C   UNL     1      19.403   1.370  11.347  1.00  0.00     0.030 A 
ATOM     21  C   UNL     1      17.495  -0.384  10.412  1.00  0.00     0.174 A 
ATOM     22  C   UNL     1      18.408   1.844  10.487  1.00  0.00     0.053 A 
ATOM     23  O   UNL     1      16.481  -1.102   9.858  1.00  0.00    -0.395 OA
ATOM     24  C   UNL     1      17.468   0.942  10.036  1.00  0.00     0.172 A 
ATOM     25  C   UNL     1      15.826  -0.076   9.097  1.00  0.00     0.586 C 
ATOM     26  O   UNL     1      16.431   1.221   9.198  1.00  0.00    -0.395 OA
ATOM     27  F   UNL     1      14.537   0.015   9.512  1.00  0.00    -0.125 F 
ATOM     28  F   UNL     1      15.810  -0.447   7.793  1.00  0.00    -0.125 F 
ENDBRANCH  16  18
ENDBRANCH   2  12
TORSDOF 3
ENDMDL
MODEL 12
REMARK VINA RESULT:    -7.110      2.724      4.054
REMARK INTER + INTRA:          -8.727
REMARK INTER:                  -8.274
REMARK INTRA:                  -0.454
REMARK UNBOUND:                -0.371
REMARK SMILES O=C(Nc1ccc2c(c1)OC(F)(F)O2)Nc1ccc(Cl)c(C(F)(F)F)c1
REMARK SMILES IDX 20 1 16 2 21 3 26 4 17 5 19 6 18 7 22 8 23 9 24 10 25 11
REMARK SMILES IDX 15 12 2 13 1 15 3 16 4 18 9 19 5 20 8 21 6 22 10 23 7 24
REMARK SMILES IDX 11 25 14 26 12 27 13 28
REMARK H PARENT 15 14 3 17
REMARK Flexibility Score: inf
ROOT
ATOM      1  Cl  UNL     1      23.440   1.790  14.235  1.00  0.00    -0.084 Cl
ATOM      2  C   UNL     1      19.972   1.639  11.348  1.00  0.00     0.043 A 
ATOM      3  C   UNL     1      21.720   0.496  12.562  1.00  0.00     0.076 A 
ATOM      4  C   UNL     1      20.647   0.463  11.673  1.00  0.00     0.040 A 
ATOM      5  C   UNL     1      20.369   2.850  11.913  1.00  0.00     0.028 A 
ATOM      6  C   UNL     1      22.119   1.708  13.128  1.00  0.00     0.053 A 
ATOM      7  C   UNL     1      21.443   2.885  12.803  1.00  0.00     0.023 A 
ENDROOT
BRANCH   3   8
ATOM      8  C   UNL     1      22.416  -0.786  12.886  1.00  0.00     0.417 C 
ATOM      9  F   UNL     1      23.766  -0.706  12.705  1.00  0.00    -0.166 F 
ATOM     10  F   UNL     1      22.240  -1.191  14.176  1.00  0.00    -0.166 F 
ATOM     11  F   UNL     1      22.004  -1.836  12.119  1.00  0.00    -0.166 F 
ENDBRANCH   3   8
BRANCH   2  12
ATOM     12  N   UNL     1      18.884   1.604  10.444  1.00  0.00    -0.308 N 
ATOM     13  C   UNL     1      17.610   1.051  10.644  1.00  0.00     0.323 C 
ATOM     14  H   UNL     1      19.056   2.036   9.539  1.00  0.00     0.171 HD
ATOM     15  O   UNL     1      17.231   0.495  11.670  1.00  0.00    -0.248 OA
ATOM     16  N   UNL     1      16.816   1.228   9.485  1.00  0.00    -0.308 N 
ATOM     17  H   UNL     1      17.265   1.709   8.709  1.00  0.00     0.171 HD
BRANCH  16  18
ATOM     18  C   UNL     1      15.498   0.831   9.262  1.00  0.00     0.046 A 
ATOM     19  C   UNL     1      15.228  -0.185   8.341  1.00  0.00     0.077 A 
ATOM     20  C   UNL     1      14.453   1.456   9.965  1.00  0.00     0.030 A 
ATOM     21  C   UNL     1      13.910  -0.546   8.152  1.00  0.00     0.174 A 
ATOM     22  C   UNL     1      13.126   1.072   9.756  1.00  0.00     0.053 A 
ATOM     23  O   UNL     1      13.460  -1.508   7.302  1.00  0.00    -0.395 OA
ATOM     24  C   UNL     1      12.886   0.067   8.842  1.00  0.00     0.172 A 
ATOM     25  C   UNL     1      12.047  -1.422   7.540  1.00  0.00     0.586 C 
ATOM     26  O   UNL     1      11.664  -0.436   8.510  1.00  0.00    -0.395 OA
ATOM     27  F   UNL     1      11.603  -2.634   7.958  1.00  0.00    -0.125 F 
ATOM     28  F   UNL     1      11.426  -1.141   6.368  1.00  0.00    -0.125 F 
ENDBRANCH  16  18
ENDBRANCH   2  12
TORSDOF 3
ENDMDL
MODEL 13
REMARK VINA RESULT:    -7.095      4.019      9.680
REMARK INTER + INTRA:          -8.710
REMARK INTER:                  -8.138
REMARK INTRA:                  -0.572
REMARK UNBOUND:                -0.371
REMARK SMILES O=C(Nc1ccc2c(c1)OC(F)(F)O2)Nc1ccc(Cl)c(C(F)(F)F)c1
REMARK SMILES IDX 20 1 16 2 21 3 26 4 17 5 19 6 18 7 22 8 23 9 24 10 25 11
REMARK SMILES IDX 15 12 2 13 1 15 3 16 4 18 9 19 5 20 8 21 6 22 10 23 7 24
REMARK SMILES IDX 11 25 14 26 12 27 13 28
REMARK H PARENT 15 14 3 17
REMARK Flexibility Score: inf
ROOT
ATOM      1  Cl  UNL     1      16.539   0.926   9.398  1.00  0.00    -0.084 Cl
ATOM      2  C   UNL     1      19.954  -0.200  12.129  1.00  0.00     0.043 A 
ATOM      3  C   UNL     1      18.319  -0.839  10.469  1.00  0.00     0.076 A 
ATOM      4  C   UNL     1      19.375  -1.174  11.316  1.00  0.00     0.040 A 
ATOM      5  C   UNL     1      19.477   1.110  12.096  1.00  0.00     0.028 A 
ATOM      6  C   UNL     1      17.842   0.472  10.435  1.00  0.00     0.053 A 
ATOM      7  C   UNL     1      18.421   1.446  11.249  1.00  0.00     0.023 A 
ENDROOT
BRANCH   3   8
ATOM      8  C   UNL     1      17.727  -1.910   9.611  1.00  0.00     0.417 C 
ATOM      9  F   UNL     1      18.339  -3.116   9.788  1.00  0.00    -0.166 F 
ATOM     10  F   UNL     1      16.402  -2.129   9.850  1.00  0.00    -0.166 F 
ATOM     11  F   UNL     1      17.813  -1.646   8.275  1.00  0.00    -0.166 F 
ENDBRANCH   3   8
BRANCH   2  12
ATOM     12  N   UNL     1      21.024  -0.542  12.990  1.00  0.00    -0.308 N 
ATOM     13  C   UNL     1      22.383  -0.677  12.668  1.00  0.00     0.323 C 
ATOM     14  H   UNL     1      20.766  -0.709  13.959  1.00  0.00     0.171 HD
ATOM     15  O   UNL     1      22.868  -0.513  11.552  1.00  0.00    -0.248 OA
ATOM     16  N   UNL     1      23.122  -1.032  13.822  1.00  0.00    -0.308 N 
ATOM     17  H   UNL     1      22.584  -1.133  14.680  1.00  0.00     0.171 HD
BRANCH  16  18
ATOM     18  C   UNL     1      24.493  -1.262  13.944  1.00  0.00     0.046 A 
ATOM     19  C   UNL     1      25.019  -2.508  13.590  1.00  0.00     0.077 A 
ATOM     20  C   UNL     1      25.332  -0.240  14.421  1.00  0.00     0.030 A 
ATOM     21  C   UNL     1      26.379  -2.691  13.727  1.00  0.00     0.174 A 
ATOM     22  C   UNL     1      26.707  -0.451  14.549  1.00  0.00     0.053 A 
ATOM     23  O   UNL     1      27.065  -3.829  13.433  1.00  0.00    -0.395 OA
ATOM     24  C   UNL     1      27.201  -1.688  14.194  1.00  0.00     0.172 A 
ATOM     25  C   UNL     1      28.398  -3.421  13.772  1.00  0.00     0.586 C 
ATOM     26  O   UNL     1      28.507  -2.073  14.252  1.00  0.00    -0.395 OA
ATOM     27  F   UNL     1      29.184  -3.554  12.674  1.00  0.00    -0.125 F 
ATOM     28  F   UNL     1      28.880  -4.259  14.723  1.00  0.00    -0.125 F 
ENDBRANCH  16  18
ENDBRANCH   2  12
TORSDOF 3
ENDMDL
MODEL 14
REMARK VINA RESULT:    -6.993      4.253      9.935
REMARK INTER + INTRA:          -8.590
REMARK INTER:                  -8.219
REMARK INTRA:                  -0.371
REMARK UNBOUND:                -0.371
REMARK SMILES O=C(Nc1ccc2c(c1)OC(F)(F)O2)Nc1ccc(Cl)c(C(F)(F)F)c1
REMARK SMILES IDX 20 1 16 2 21 3 26 4 17 5 19 6 18 7 22 8 23 9 24 10 25 11
REMARK SMILES IDX 15 12 2 13 1 15 3 16 4 18 9 19 5 20 8 21 6 22 10 23 7 24
REMARK SMILES IDX 11 25 14 26 12 27 13 28
REMARK H PARENT 15 14 3 17
REMARK Flexibility Score: inf
ROOT
ATOM      1  Cl  UNL     1      11.926  -1.450   8.004  1.00  0.00    -0.084 Cl
ATOM      2  C   UNL     1      16.377  -1.313   8.753  1.00  0.00     0.043 A 
ATOM      3  C   UNL     1      14.236  -0.195   8.728  1.00  0.00     0.076 A 
ATOM      4  C   UNL     1      15.611  -0.166   8.956  1.00  0.00     0.040 A 
ATOM      5  C   UNL     1      15.768  -2.491   8.320  1.00  0.00     0.028 A 
ATOM      6  C   UNL     1      13.626  -1.373   8.295  1.00  0.00     0.053 A 
ATOM      7  C   UNL     1      14.392  -2.522   8.091  1.00  0.00     0.023 A 
ENDROOT
BRANCH   3   8
ATOM      8  C   UNL     1      13.449   1.054   8.959  1.00  0.00     0.417 C 
ATOM      9  F   UNL     1      12.743   1.437   7.857  1.00  0.00    -0.166 F 
ATOM     10  F   UNL     1      12.534   0.944   9.964  1.00  0.00    -0.166 F 
ATOM     11  F   UNL     1      14.222   2.128   9.292  1.00  0.00    -0.166 F 
ENDBRANCH   3   8
BRANCH   2  12
ATOM     12  N   UNL     1      17.773  -1.283   8.982  1.00  0.00    -0.308 N 
ATOM     13  C   UNL     1      18.451  -1.408  10.205  1.00  0.00     0.323 C 
ATOM     14  H   UNL     1      18.348  -1.153   8.154  1.00  0.00     0.171 HD
ATOM     15  O   UNL     1      17.917  -1.569  11.299  1.00  0.00    -0.248 OA
ATOM     16  N   UNL     1      19.848  -1.321   9.996  1.00  0.00    -0.308 N 
ATOM     17  H   UNL     1      20.145  -1.186   9.032  1.00  0.00     0.171 HD
BRANCH  16  18
ATOM     18  C   UNL     1      20.877  -1.395  10.935  1.00  0.00     0.046 A 
ATOM     19  C   UNL     1      20.823  -0.601  12.084  1.00  0.00     0.077 A 
ATOM     20  C   UNL     1      21.957  -2.268  10.718  1.00  0.00     0.030 A 
ATOM     21  C   UNL     1      21.862  -0.707  12.985  1.00  0.00     0.174 A 
ATOM     22  C   UNL     1      22.997  -2.357  11.647  1.00  0.00     0.053 A 
ATOM     23  O   UNL     1      21.980  -0.017  14.152  1.00  0.00    -0.395 OA
ATOM     24  C   UNL     1      22.921  -1.563  12.772  1.00  0.00     0.172 A 
ATOM     25  C   UNL     1      23.227  -0.538  14.635  1.00  0.00     0.586 C 
ATOM     26  O   UNL     1      23.836  -1.517  13.780  1.00  0.00    -0.395 OA
ATOM     27  F   UNL     1      23.021  -1.097  15.853  1.00  0.00    -0.125 F 
ATOM     28  F   UNL     1      24.093   0.492  14.799  1.00  0.00    -0.125 F 
ENDBRANCH  16  18
ENDBRANCH   2  12
TORSDOF 3
ENDMDL
MODEL 15
REMARK VINA RESULT:    -6.974      2.534      3.049
REMARK INTER + INTRA:          -8.568
REMARK INTER:                  -8.002
REMARK INTRA:                  -0.566
REMARK UNBOUND:                -0.371
REMARK SMILES O=C(Nc1ccc2c(c1)OC(F)(F)O2)Nc1ccc(Cl)c(C(F)(F)F)c1
REMARK SMILES IDX 20 1 16 2 21 3 26 4 17 5 19 6 18 7 22 8 23 9 24 10 25 11
REMARK SMILES IDX 15 12 2 13 1 15 3 16 4 18 9 19 5 20 8 21 6 22 10 23 7 24
REMARK SMILES IDX 11 25 14 26 12 27 13 28
REMARK H PARENT 15 14 3 17
REMARK Flexibility Score: inf
ROOT
ATOM      1  Cl  UNL     1      27.570  -0.206  15.262  1.00  0.00    -0.084 Cl
ATOM      2  C   UNL     1      23.196  -0.318  14.146  1.00  0.00     0.043 A 
ATOM      3  C   UNL     1      25.178   0.960  14.672  1.00  0.00     0.076 A 
ATOM      4  C   UNL     1      23.828   0.912  14.326  1.00  0.00     0.040 A 
ATOM      5  C   UNL     1      23.915  -1.502  14.311  1.00  0.00     0.028 A 
ATOM      6  C   UNL     1      25.897  -0.224  14.838  1.00  0.00     0.053 A 
ATOM      7  C   UNL     1      25.266  -1.455  14.657  1.00  0.00     0.023 A 
ENDROOT
BRANCH   3   8
ATOM      8  C   UNL     1      25.819   2.298  14.855  1.00  0.00     0.417 C 
ATOM      9  F   UNL     1      26.350   2.455  16.101  1.00  0.00    -0.166 F 
ATOM     10  F   UNL     1      26.842   2.535  13.985  1.00  0.00    -0.166 F 
ATOM     11  F   UNL     1      24.955   3.341  14.688  1.00  0.00    -0.166 F 
ENDBRANCH   3   8
BRANCH   2  12
ATOM     12  N   UNL     1      21.826  -0.366  13.797  1.00  0.00    -0.308 N 
ATOM     13  C   UNL     1      21.248  -0.171  12.533  1.00  0.00     0.323 C 
ATOM     14  H   UNL     1      21.188  -0.566  14.564  1.00  0.00     0.171 HD
ATOM     15  O   UNL     1      21.865   0.078  11.501  1.00  0.00    -0.248 OA
ATOM     16  N   UNL     1      19.841  -0.304  12.617  1.00  0.00    -0.308 N 
ATOM     17  H   UNL     1      19.469  -0.512  13.541  1.00  0.00     0.171 HD
BRANCH  16  18
ATOM     18  C   UNL     1      18.892  -0.188  11.601  1.00  0.00     0.046 A 
ATOM     19  C   UNL     1      18.471  -1.330  10.914  1.00  0.00     0.077 A 
ATOM     20  C   UNL     1      18.366   1.075  11.280  1.00  0.00     0.030 A 
ATOM     21  C   UNL     1      17.531  -1.168   9.917  1.00  0.00     0.174 A 
ATOM     22  C   UNL     1      17.414   1.213  10.266  1.00  0.00     0.053 A 
ATOM     23  O   UNL     1      17.007  -2.159   9.146  1.00  0.00    -0.395 OA
ATOM     24  C   UNL     1      17.016   0.071   9.603  1.00  0.00     0.172 A 
ATOM     25  C   UNL     1      16.114  -1.397   8.320  1.00  0.00     0.586 C 
ATOM     26  O   UNL     1      16.103   0.012   8.593  1.00  0.00    -0.395 OA
ATOM     27  F   UNL     1      14.856  -1.879   8.482  1.00  0.00    -0.125 F 
ATOM     28  F   UNL     1      16.459  -1.584   7.022  1.00  0.00    -0.125 F 
ENDBRANCH  16  18
ENDBRANCH   2  12
TORSDOF 3
ENDMDL
MODEL 16
REMARK VINA RESULT:    -6.907      3.486      9.347
REMARK INTER + INTRA:          -8.490
REMARK INTER:                  -8.301
REMARK INTRA:                  -0.189
REMARK UNBOUND:                -0.371
REMARK SMILES O=C(Nc1ccc2c(c1)OC(F)(F)O2)Nc1ccc(Cl)c(C(F)(F)F)c1
REMARK SMILES IDX 20 1 16 2 21 3 26 4 17 5 19 6 18 7 22 8 23 9 24 10 25 11
REMARK SMILES IDX 15 12 2 13 1 15 3 16 4 18 9 19 5 20 8 21 6 22 10 23 7 24
REMARK SMILES IDX 11 25 14 26 12 27 13 28
REMARK H PARENT 15 14 3 17
REMARK Flexibility Score: inf
ROOT
ATOM      1  Cl  UNL     1      14.783   1.872   6.687  1.00  0.00    -0.084 Cl
ATOM      2  C   UNL     1      18.576   1.732   9.133  1.00  0.00     0.043 A 
ATOM      3  C   UNL     1      16.189   1.399   8.974  1.00  0.00     0.076 A 
ATOM      4  C   UNL     1      17.367   1.359   9.719  1.00  0.00     0.040 A 
ATOM      5  C   UNL     1      18.608   2.145   7.802  1.00  0.00     0.028 A 
ATOM      6  C   UNL     1      16.220   1.812   7.642  1.00  0.00     0.053 A 
ATOM      7  C   UNL     1      17.430   2.185   7.055  1.00  0.00     0.023 A 
ENDROOT
BRANCH   3   8
ATOM      8  C   UNL     1      14.914   0.990   9.638  1.00  0.00     0.417 C 
ATOM      9  F   UNL     1      13.917   1.904   9.460  1.00  0.00    -0.166 F 
ATOM     10  F   UNL     1      14.415  -0.194   9.177  1.00  0.00    -0.166 F 
ATOM     11  F   UNL     1      15.031   0.830  10.988  1.00  0.00    -0.166 F 
ENDBRANCH   3   8
BRANCH   2  12
ATOM     12  N   UNL     1      19.771   1.694   9.890  1.00  0.00    -0.308 N 
ATOM     13  C   UNL     1      20.179   0.717  10.812  1.00  0.00     0.323 C 
ATOM     14  H   UNL     1      20.406   2.474   9.741  1.00  0.00     0.171 HD
ATOM     15  O   UNL     1      19.541  -0.286  11.112  1.00  0.00    -0.248 OA
ATOM     16  N   UNL     1      21.443   1.059  11.351  1.00  0.00    -0.308 N 
ATOM     17  H   UNL     1      21.854   1.924  11.007  1.00  0.00     0.171 HD
BRANCH  16  18
ATOM     18  C   UNL     1      22.205   0.367  12.293  1.00  0.00     0.046 A 
ATOM     19  C   UNL     1      22.744  -0.880  11.966  1.00  0.00     0.077 A 
ATOM     20  C   UNL     1      22.424   0.931  13.562  1.00  0.00     0.030 A 
ATOM     21  C   UNL     1      23.490  -1.528  12.929  1.00  0.00     0.174 A 
ATOM     22  C   UNL     1      23.185   0.255  14.520  1.00  0.00     0.053 A 
ATOM     23  O   UNL     1      24.089  -2.742  12.791  1.00  0.00    -0.395 OA
ATOM     24  C   UNL     1      23.705  -0.974  14.172  1.00  0.00     0.172 A 
ATOM     25  C   UNL     1      24.695  -2.879  14.085  1.00  0.00     0.586 C 
ATOM     26  O   UNL     1      24.466  -1.773  14.971  1.00  0.00    -0.395 OA
ATOM     27  F   UNL     1      26.033  -3.034  13.923  1.00  0.00    -0.125 F 
ATOM     28  F   UNL     1      24.221  -4.007  14.669  1.00  0.00    -0.125 F 
ENDBRANCH  16  18
ENDBRANCH   2  12
TORSDOF 3
ENDMDL
MODEL 17
REMARK VINA RESULT:    -6.884      2.208      3.008
REMARK INTER + INTRA:          -8.462
REMARK INTER:                  -8.034
REMARK INTRA:                  -0.429
REMARK UNBOUND:                -0.371
REMARK SMILES O=C(Nc1ccc2c(c1)OC(F)(F)O2)Nc1ccc(Cl)c(C(F)(F)F)c1
REMARK SMILES IDX 20 1 16 2 21 3 26 4 17 5 19 6 18 7 22 8 23 9 24 10 25 11
REMARK SMILES IDX 15 12 2 13 1 15 3 16 4 18 9 19 5 20 8 21 6 22 10 23 7 24
REMARK SMILES IDX 11 25 14 26 12 27 13 28
REMARK H PARENT 15 14 3 17
REMARK Flexibility Score: inf
ROOT
ATOM      1  Cl  UNL     1      29.942  -0.932  14.705  1.00  0.00    -0.084 Cl
ATOM      2  C   UNL     1      25.502  -0.187  14.370  1.00  0.00     0.043 A 
ATOM      3  C   UNL     1      27.399  -1.644  14.032  1.00  0.00     0.076 A 
ATOM      4  C   UNL     1      26.029  -1.402  13.935  1.00  0.00     0.040 A 
ATOM      5  C   UNL     1      26.344   0.788  14.903  1.00  0.00     0.028 A 
ATOM      6  C   UNL     1      28.242  -0.669  14.565  1.00  0.00     0.053 A 
ATOM      7  C   UNL     1      27.715   0.547  15.001  1.00  0.00     0.023 A 
ENDROOT
BRANCH   3   8
ATOM      8  C   UNL     1      27.924  -2.960  13.556  1.00  0.00     0.417 C 
ATOM      9  F   UNL     1      28.720  -2.836  12.456  1.00  0.00    -0.166 F 
ATOM     10  F   UNL     1      28.679  -3.613  14.486  1.00  0.00    -0.166 F 
ATOM     11  F   UNL     1      26.944  -3.841  13.205  1.00  0.00    -0.166 F 
ENDBRANCH   3   8
BRANCH   2  12
ATOM     12  N   UNL     1      24.112   0.059  14.269  1.00  0.00    -0.308 N 
ATOM     13  C   UNL     1      23.369   0.361  13.117  1.00  0.00     0.323 C 
ATOM     14  H   UNL     1      23.596   0.008  15.144  1.00  0.00     0.171 HD
ATOM     15  O   UNL     1      23.827   0.462  11.983  1.00  0.00    -0.248 OA
ATOM     16  N   UNL     1      22.004   0.535  13.452  1.00  0.00    -0.308 N 
ATOM     17  H   UNL     1      21.770   0.421  14.436  1.00  0.00     0.171 HD
BRANCH  16  18
ATOM     18  C   UNL     1      20.933   0.844  12.614  1.00  0.00     0.046 A 
ATOM     19  C   UNL     1      19.861  -0.046  12.505  1.00  0.00     0.077 A 
ATOM     20  C   UNL     1      20.941   2.047  11.886  1.00  0.00     0.030 A 
ATOM     21  C   UNL     1      18.823   0.300  11.665  1.00  0.00     0.174 A 
ATOM     22  C   UNL     1      19.877   2.374  11.042  1.00  0.00     0.053 A 
ATOM     23  O   UNL     1      17.703  -0.438  11.434  1.00  0.00    -0.395 OA
ATOM     24  C   UNL     1      18.831   1.479  10.952  1.00  0.00     0.172 A 
ATOM     25  C   UNL     1      17.022   0.413  10.501  1.00  0.00     0.586 C 
ATOM     26  O   UNL     1      17.716   1.629  10.185  1.00  0.00    -0.395 OA
ATOM     27  F   UNL     1      15.805   0.730  11.011  1.00  0.00    -0.125 F 
ATOM     28  F   UNL     1      16.816  -0.279   9.353  1.00  0.00    -0.125 F 
ENDBRANCH  16  18
ENDBRANCH   2  12
TORSDOF 3
ENDMDL
MODEL 18
REMARK VINA RESULT:    -6.884      3.546      9.600
REMARK INTER + INTRA:          -8.462
REMARK INTER:                  -8.059
REMARK INTRA:                  -0.403
REMARK UNBOUND:                -0.371
REMARK SMILES O=C(Nc1ccc2c(c1)OC(F)(F)O2)Nc1ccc(Cl)c(C(F)(F)F)c1
REMARK SMILES IDX 20 1 16 2 21 3 26 4 17 5 19 6 18 7 22 8 23 9 24 10 25 11
REMARK SMILES IDX 15 12 2 13 1 15 3 16 4 18 9 19 5 20 8 21 6 22 10 23 7 24
REMARK SMILES IDX 11 25 14 26 12 27 13 28
REMARK H PARENT 15 14 3 17
REMARK Flexibility Score: inf
ROOT
ATOM      1  Cl  UNL     1      15.604   1.520   6.998  1.00  0.00    -0.084 Cl
ATOM      2  C   UNL     1      18.707   1.586  10.277  1.00  0.00     0.043 A 
ATOM      3  C   UNL     1      16.425   1.211   9.579  1.00  0.00     0.076 A 
ATOM      4  C   UNL     1      17.393   1.235  10.582  1.00  0.00     0.040 A 
ATOM      5  C   UNL     1      19.055   1.914   8.967  1.00  0.00     0.028 A 
ATOM      6  C   UNL     1      16.772   1.540   8.268  1.00  0.00     0.053 A 
ATOM      7  C   UNL     1      18.088   1.891   7.962  1.00  0.00     0.023 A 
ENDROOT
BRANCH   3   8
ATOM      8  C   UNL     1      15.028   0.828   9.946  1.00  0.00     0.417 C 
ATOM      9  F   UNL     1      14.689  -0.410   9.486  1.00  0.00    -0.166 F 
ATOM     10  F   UNL     1      14.808   0.795  11.292  1.00  0.00    -0.166 F 
ATOM     11  F   UNL     1      14.083   1.677   9.448  1.00  0.00    -0.166 F 
ENDBRANCH   3   8
BRANCH   2  12
ATOM     12  N   UNL     1      19.688   1.611  11.296  1.00  0.00    -0.308 N 
ATOM     13  C   UNL     1      20.661   0.641  11.585  1.00  0.00     0.323 C 
ATOM     14  H   UNL     1      19.679   2.438  11.888  1.00  0.00     0.171 HD
ATOM     15  O   UNL     1      20.814  -0.413  10.976  1.00  0.00    -0.248 OA
ATOM     16  N   UNL     1      21.446   1.055  12.688  1.00  0.00    -0.308 N 
ATOM     17  H   UNL     1      21.202   1.956  13.094  1.00  0.00     0.171 HD
BRANCH  16  18
ATOM     18  C   UNL     1      22.512   0.393  13.297  1.00  0.00     0.046 A 
ATOM     19  C   UNL     1      23.782   0.979  13.295  1.00  0.00     0.077 A 
ATOM     20  C   UNL     1      22.301  -0.855  13.906  1.00  0.00     0.030 A 
ATOM     21  C   UNL     1      24.806   0.288  13.908  1.00  0.00     0.174 A 
ATOM     22  C   UNL     1      23.356  -1.534  14.522  1.00  0.00     0.053 A 
ATOM     23  O   UNL     1      26.100   0.700  14.004  1.00  0.00    -0.395 OA
ATOM     24  C   UNL     1      24.598  -0.935  14.506  1.00  0.00     0.172 A 
ATOM     25  C   UNL     1      26.668  -0.404  14.724  1.00  0.00     0.586 C 
ATOM     26  O   UNL     1      25.737  -1.445  15.053  1.00  0.00    -0.395 OA
ATOM     27  F   UNL     1      27.216   0.065  15.874  1.00  0.00    -0.125 F 
ATOM     28  F   UNL     1      27.670  -0.937  13.982  1.00  0.00    -0.125 F 
ENDBRANCH  16  18
ENDBRANCH   2  12
TORSDOF 3
ENDMDL
MODEL 19
REMARK VINA RESULT:    -6.822      4.755      5.839
REMARK INTER + INTRA:          -8.389
REMARK INTER:                  -7.870
REMARK INTRA:                  -0.519
REMARK UNBOUND:                -0.371
REMARK SMILES O=C(Nc1ccc2c(c1)OC(F)(F)O2)Nc1ccc(Cl)c(C(F)(F)F)c1
REMARK SMILES IDX 20 1 16 2 21 3 26 4 17 5 19 6 18 7 22 8 23 9 24 10 25 11
REMARK SMILES IDX 15 12 2 13 1 15 3 16 4 18 9 19 5 20 8 21 6 22 10 23 7 24
REMARK SMILES IDX 11 25 14 26 12 27 13 28
REMARK H PARENT 15 14 3 17
REMARK Flexibility Score: inf
ROOT
ATOM      1  Cl  UNL     1      23.101   3.165  13.898  1.00  0.00    -0.084 Cl
ATOM      2  C   UNL     1      20.573   0.709  11.075  1.00  0.00     0.043 A 
ATOM      3  C   UNL     1      21.424   2.861  11.771  1.00  0.00     0.076 A 
ATOM      4  C   UNL     1      20.647   2.092  10.905  1.00  0.00     0.040 A 
ATOM      5  C   UNL     1      21.276   0.096  12.112  1.00  0.00     0.028 A 
ATOM      6  C   UNL     1      22.127   2.248  12.808  1.00  0.00     0.053 A 
ATOM      7  C   UNL     1      22.054   0.864  12.979  1.00  0.00     0.023 A 
ENDROOT
BRANCH   3   8
ATOM      8  C   UNL     1      21.478   4.339  11.555  1.00  0.00     0.417 C 
ATOM      9  F   UNL     1      20.699   4.742  10.511  1.00  0.00    -0.166 F 
ATOM     10  F   UNL     1      21.057   5.063  12.631  1.00  0.00    -0.166 F 
ATOM     11  F   UNL     1      22.732   4.801  11.278  1.00  0.00    -0.166 F 
ENDBRANCH   3   8
BRANCH   2  12
ATOM     12  N   UNL     1      19.783  -0.070  10.198  1.00  0.00    -0.308 N 
ATOM     13  C   UNL     1      18.605  -0.775  10.491  1.00  0.00     0.323 C 
ATOM     14  H   UNL     1      20.118  -0.121   9.239  1.00  0.00     0.171 HD
ATOM     15  O   UNL     1      18.062  -0.823  11.590  1.00  0.00    -0.248 OA
ATOM     16  N   UNL     1      18.129  -1.427   9.328  1.00  0.00    -0.308 N 
ATOM     17  H   UNL     1      18.685  -1.297   8.486  1.00  0.00     0.171 HD
BRANCH  16  18
ATOM     18  C   UNL     1      16.996  -2.228   9.179  1.00  0.00     0.046 A 
ATOM     19  C   UNL     1      17.128  -3.619   9.174  1.00  0.00     0.077 A 
ATOM     20  C   UNL     1      15.733  -1.628   9.037  1.00  0.00     0.030 A 
ATOM     21  C   UNL     1      15.981  -4.371   9.024  1.00  0.00     0.174 A 
ATOM     22  C   UNL     1      14.586  -2.413   8.887  1.00  0.00     0.053 A 
ATOM     23  O   UNL     1      15.916  -5.730   8.996  1.00  0.00    -0.395 OA
ATOM     24  C   UNL     1      14.743  -3.783   8.885  1.00  0.00     0.172 A 
ATOM     25  C   UNL     1      14.504  -5.917   8.822  1.00  0.00     0.586 C 
ATOM     26  O   UNL     1      13.745  -4.700   8.752  1.00  0.00    -0.395 OA
ATOM     27  F   UNL     1      14.035  -6.660   9.855  1.00  0.00    -0.125 F 
ATOM     28  F   UNL     1      14.297  -6.623   7.683  1.00  0.00    -0.125 F 
ENDBRANCH  16  18
ENDBRANCH   2  12
TORSDOF 3
ENDMDL
MODEL 20
REMARK VINA RESULT:    -6.789      3.882      4.871
REMARK INTER + INTRA:          -8.351
REMARK INTER:                  -7.806
REMARK INTRA:                  -0.545
REMARK UNBOUND:                -0.371
REMARK SMILES O=C(Nc1ccc2c(c1)OC(F)(F)O2)Nc1ccc(Cl)c(C(F)(F)F)c1
REMARK SMILES IDX 20 1 16 2 21 3 26 4 17 5 19 6 18 7 22 8 23 9 24 10 25 11
REMARK SMILES IDX 15 12 2 13 1 15 3 16 4 18 9 19 5 20 8 21 6 22 10 23 7 24
REMARK SMILES IDX 11 25 14 26 12 27 13 28
REMARK H PARENT 15 14 3 17
REMARK Flexibility Score: inf
ROOT
ATOM      1  Cl  UNL     1      23.023   3.092  13.949  1.00  0.00    -0.084 Cl
ATOM      2  C   UNL     1      20.377   0.799  11.098  1.00  0.00     0.043 A 
ATOM      3  C   UNL     1      22.113   0.805  12.778  1.00  0.00     0.076 A 
ATOM      4  C   UNL     1      21.290   0.108  11.894  1.00  0.00     0.040 A 
ATOM      5  C   UNL     1      20.287   2.188  11.185  1.00  0.00     0.028 A 
ATOM      6  C   UNL     1      22.024   2.194  12.866  1.00  0.00     0.053 A 
ATOM      7  C   UNL     1      21.110   2.886  12.069  1.00  0.00     0.023 A 
ENDROOT
BRANCH   3   8
ATOM      8  C   UNL     1      23.077   0.028  13.615  1.00  0.00     0.417 C 
ATOM      9  F   UNL     1      24.376   0.318  13.320  1.00  0.00    -0.166 F 
ATOM     10  F   UNL     1      22.942   0.255  14.954  1.00  0.00    -0.166 F 
ATOM     11  F   UNL     1      22.959  -1.323  13.466  1.00  0.00    -0.166 F 
ENDBRANCH   3   8
BRANCH   2  12
ATOM     12  N   UNL     1      19.544   0.092  10.199  1.00  0.00    -0.308 N 
ATOM     13  C   UNL     1      18.441  -0.723  10.502  1.00  0.00     0.323 C 
ATOM     14  H   UNL     1      19.780   0.192   9.215  1.00  0.00     0.171 HD
ATOM     15  O   UNL     1      18.018  -0.953  11.630  1.00  0.00    -0.248 OA
ATOM     16  N   UNL     1      17.883  -1.245   9.310  1.00  0.00    -0.308 N 
ATOM     17  H   UNL     1      18.342  -0.967   8.445  1.00  0.00     0.171 HD
BRANCH  16  18
ATOM     18  C   UNL     1      16.786  -2.093   9.159  1.00  0.00     0.046 A 
ATOM     19  C   UNL     1      16.976  -3.478   9.163  1.00  0.00     0.077 A 
ATOM     20  C   UNL     1      15.499  -1.548   9.007  1.00  0.00     0.030 A 
ATOM     21  C   UNL     1      15.862  -4.278   9.011  1.00  0.00     0.174 A 
ATOM     22  C   UNL     1      14.387  -2.380   8.855  1.00  0.00     0.053 A 
ATOM     23  O   UNL     1      15.854  -5.639   8.990  1.00  0.00    -0.395 OA
ATOM     24  C   UNL     1      14.601  -3.742   8.862  1.00  0.00     0.172 A 
ATOM     25  C   UNL     1      14.452  -5.884   8.809  1.00  0.00     0.586 C 
ATOM     26  O   UNL     1      13.644  -4.701   8.728  1.00  0.00    -0.395 OA
ATOM     27  F   UNL     1      14.008  -6.642   9.843  1.00  0.00    -0.125 F 
ATOM     28  F   UNL     1      14.281  -6.605   7.673  1.00  0.00    -0.125 F 
ENDBRANCH  16  18
ENDBRANCH   2  12
TORSDOF 3
ENDMDL
