REMARK SMILES O=C(Nc1ccc2c(c1)OC(F)(F)O2)Nc1ccc(Cl)c(C(F)(F)F)c1
REMARK SMILES IDX 20 1 16 2 21 3 26 4 17 5 19 6 18 7 22 8 23 9 24 10 25 11
REMARK SMILES IDX 15 12 2 13 1 15 3 16 4 18 9 19 5 20 8 21 6 22 10 23 7 24
REMARK SMILES IDX 11 25 14 26 12 27 13 28
REMARK H PARENT 15 14 3 17
REMARK Flexibility Score: inf
ROOT
ATOM      1  Cl  UNL     1      17.651  -3.926   8.974  1.00  0.00    -0.084 Cl
ATOM      2  C   UNL     1      19.680   0.075   9.488  1.00  0.00     0.043 A 
ATOM      3  C   UNL     1      17.695  -1.201   8.969  1.00  0.00     0.076 A 
ATOM      4  C   UNL     1      18.333   0.029   9.131  1.00  0.00     0.040 A 
ATOM      5  C   UNL     1      20.391  -1.109   9.682  1.00  0.00     0.028 A 
ATOM      6  C   UNL     1      18.406  -2.386   9.163  1.00  0.00     0.053 A 
ATOM      7  C   UNL     1      19.754  -2.340   9.520  1.00  0.00     0.023 A 
ENDROOT
BRANCH   3   8
ATOM      8  C   UNL     1      16.250  -1.208   8.588  1.00  0.00     0.417 C 
ATOM      9  F   UNL     1      15.743   0.050   8.444  1.00  0.00    -0.166 F 
ATOM     10  F   UNL     1      16.001  -1.844   7.408  1.00  0.00    -0.166 F 
ATOM     11  F   UNL     1      15.450  -1.825   9.505  1.00  0.00    -0.166 F 
ENDBRANCH   3   8
BRANCH   2  12
ATOM     12  N   UNL     1      20.327   1.323   9.650  1.00  0.00    -0.308 N 
ATOM     13  C   UNL     1      21.706   1.583   9.690  1.00  0.00     0.323 C 
ATOM     14  H   UNL     1      19.709   2.124   9.750  1.00  0.00     0.171 HD
ATOM     15  O   UNL     1      22.591   0.739   9.586  1.00  0.00    -0.248 OA
ATOM     16  N   UNL     1      21.932   2.969   9.868  1.00  0.00    -0.308 N 
ATOM     17  H   UNL     1      21.100   3.550   9.939  1.00  0.00     0.171 HD
BRANCH  16  18
ATOM     18  C   UNL     1      23.147   3.649   9.961  1.00  0.00     0.046 A 
ATOM     19  C   UNL     1      24.327   3.017   9.559  1.00  0.00     0.077 A 
ATOM     20  C   UNL     1      23.173   4.964  10.458  1.00  0.00     0.030 A 
ATOM     21  C   UNL     1      25.504   3.728   9.668  1.00  0.00     0.174 A 
ATOM     22  C   UNL     1      24.379   5.663  10.558  1.00  0.00     0.053 A 
ATOM     23  O   UNL     1      26.742   3.278   9.327  1.00  0.00    -0.395 OA
ATOM     24  C   UNL     1      25.529   5.017  10.155  1.00  0.00     0.172 A 
ATOM     25  C   UNL     1      27.534   4.428   9.658  1.00  0.00     0.586 C 
ATOM     26  O   UNL     1      26.787   5.537  10.180  1.00  0.00    -0.395 OA
ATOM     27  F   UNL     1      28.192   4.836   8.545  1.00  0.00    -0.125 F 
ATOM     28  F   UNL     1      28.466   4.065  10.574  1.00  0.00    -0.125 F 
ENDBRANCH  16  18
ENDBRANCH   2  12
TORSDOF 3
