MODEL 1
REMARK VINA RESULT:    -7.640      0.000      0.000
REMARK INTER + INTRA:          -9.483
REMARK INTER:                  -9.422
REMARK INTRA:                  -0.062
REMARK UNBOUND:                -0.504
REMARK SMILES O=C(Nc1ccc2c(c1)OC(F)(F)O2)Nc1ccc(Cl)c(C(F)(F)F)c1
REMARK SMILES IDX 20 1 16 2 21 3 26 4 17 5 19 6 18 7 22 8 23 9 24 10 25 11
REMARK SMILES IDX 15 12 2 13 1 15 3 16 4 18 9 19 5 20 8 21 6 22 10 23 7 24
REMARK SMILES IDX 11 25 14 26 12 27 13 28
REMARK H PARENT 15 14 3 17
REMARK Flexibility Score: inf
ROOT
ATOM      1  Cl  UNL     1     -26.702  -0.681 -15.294  1.00  0.00    -0.084 Cl
ATOM      2  C   UNL     1     -22.769   0.894 -13.728  1.00  0.00     0.043 A 
ATOM      3  C   UNL     1     -24.160  -0.980 -14.355  1.00  0.00     0.076 A 
ATOM      4  C   UNL     1     -22.949  -0.482 -13.874  1.00  0.00     0.040 A 
ATOM      5  C   UNL     1     -23.799   1.772 -14.066  1.00  0.00     0.028 A 
ATOM      6  C   UNL     1     -25.191  -0.102 -14.692  1.00  0.00     0.053 A 
ATOM      7  C   UNL     1     -25.011   1.274 -14.547  1.00  0.00     0.023 A 
ENDROOT
BRANCH   3   8
ATOM      8  C   UNL     1     -24.313  -2.460 -14.498  1.00  0.00     0.417 C 
ATOM      9  F   UNL     1     -24.069  -2.889 -15.770  1.00  0.00    -0.166 F 
ATOM     10  F   UNL     1     -23.468  -3.173 -13.700  1.00  0.00    -0.166 F 
ATOM     11  F   UNL     1     -25.564  -2.909 -14.190  1.00  0.00    -0.166 F 
ENDBRANCH   3   8
BRANCH   2  12
ATOM     12  N   UNL     1     -21.542   1.399 -13.239  1.00  0.00    -0.308 N 
ATOM     13  C   UNL     1     -20.741   0.877 -12.210  1.00  0.00     0.323 C 
ATOM     14  H   UNL     1     -21.206   2.243 -13.694  1.00  0.00     0.171 HD
ATOM     15  O   UNL     1     -20.994  -0.130 -11.556  1.00  0.00    -0.248 OA
ATOM     16  N   UNL     1     -19.593   1.687 -12.033  1.00  0.00    -0.308 N 
ATOM     17  H   UNL     1     -19.518   2.493 -12.649  1.00  0.00     0.171 HD
BRANCH  16  18
ATOM     18  C   UNL     1     -18.547   1.528 -11.123  1.00  0.00     0.046 A 
ATOM     19  C   UNL     1     -17.302   1.080 -11.573  1.00  0.00     0.077 A 
ATOM     20  C   UNL     1     -18.756   1.819  -9.764  1.00  0.00     0.030 A 
ATOM     21  C   UNL     1     -16.298   0.938 -10.639  1.00  0.00     0.174 A 
ATOM     22  C   UNL     1     -17.721   1.667  -8.837  1.00  0.00     0.053 A 
ATOM     23  O   UNL     1     -15.027   0.516 -10.889  1.00  0.00    -0.395 OA
ATOM     24  C   UNL     1     -16.502   1.223  -9.306  1.00  0.00     0.172 A 
ATOM     25  C   UNL     1     -14.472   0.572  -9.568  1.00  0.00     0.586 C 
ATOM     26  O   UNL     1     -15.385   1.018  -8.554  1.00  0.00    -0.395 OA
ATOM     27  F   UNL     1     -13.401   1.405  -9.582  1.00  0.00    -0.125 F 
ATOM     28  F   UNL     1     -14.024  -0.663  -9.234  1.00  0.00    -0.125 F 
ENDBRANCH  16  18
ENDBRANCH   2  12
TORSDOF 3
ENDMDL
MODEL 2
REMARK VINA RESULT:    -7.439      4.195     10.122
REMARK INTER + INTRA:          -9.247
REMARK INTER:                  -8.833
REMARK INTRA:                  -0.415
REMARK UNBOUND:                -0.504
REMARK SMILES O=C(Nc1ccc2c(c1)OC(F)(F)O2)Nc1ccc(Cl)c(C(F)(F)F)c1
REMARK SMILES IDX 20 1 16 2 21 3 26 4 17 5 19 6 18 7 22 8 23 9 24 10 25 11
REMARK SMILES IDX 15 12 2 13 1 15 3 16 4 18 9 19 5 20 8 21 6 22 10 23 7 24
REMARK SMILES IDX 11 25 14 26 12 27 13 28
REMARK H PARENT 15 14 3 17
REMARK Flexibility Score: inf
ROOT
ATOM      1  Cl  UNL     1     -11.161   2.837  -9.123  1.00  0.00    -0.084 Cl
ATOM      2  C   UNL     1     -15.327   1.108  -9.340  1.00  0.00     0.043 A 
ATOM      3  C   UNL     1     -13.768   2.664  -8.346  1.00  0.00     0.076 A 
ATOM      4  C   UNL     1     -15.052   2.123  -8.424  1.00  0.00     0.040 A 
ATOM      5  C   UNL     1     -14.320   0.635 -10.180  1.00  0.00     0.028 A 
ATOM      6  C   UNL     1     -12.760   2.191  -9.187  1.00  0.00     0.053 A 
ATOM      7  C   UNL     1     -13.035   1.175 -10.104  1.00  0.00     0.023 A 
ENDROOT
BRANCH   3   8
ATOM      8  C   UNL     1     -13.514   3.751  -7.353  1.00  0.00     0.417 C 
ATOM      9  F   UNL     1     -14.653   4.158  -6.722  1.00  0.00    -0.166 F 
ATOM     10  F   UNL     1     -12.652   3.389  -6.359  1.00  0.00    -0.166 F 
ATOM     11  F   UNL     1     -12.975   4.876  -7.904  1.00  0.00    -0.166 F 
ENDBRANCH   3   8
BRANCH   2  12
ATOM     12  N   UNL     1     -16.629   0.558  -9.417  1.00  0.00    -0.308 N 
ATOM     13  C   UNL     1     -17.603   0.777 -10.404  1.00  0.00     0.323 C 
ATOM     14  H   UNL     1     -16.880  -0.072  -8.660  1.00  0.00     0.171 HD
ATOM     15  O   UNL     1     -17.469   1.504 -11.384  1.00  0.00    -0.248 OA
ATOM     16  N   UNL     1     -18.770   0.034 -10.105  1.00  0.00    -0.308 N 
ATOM     17  H   UNL     1     -18.736  -0.525  -9.256  1.00  0.00     0.171 HD
BRANCH  16  18
ATOM     18  C   UNL     1     -19.967  -0.034 -10.820  1.00  0.00     0.046 A 
ATOM     19  C   UNL     1     -19.950  -0.433 -12.159  1.00  0.00     0.077 A 
ATOM     20  C   UNL     1     -21.177   0.299 -10.186  1.00  0.00     0.030 A 
ATOM     21  C   UNL     1     -21.156  -0.485 -12.826  1.00  0.00     0.174 A 
ATOM     22  C   UNL     1     -22.385   0.237 -10.884  1.00  0.00     0.053 A 
ATOM     23  O   UNL     1     -21.335  -0.849 -14.126  1.00  0.00    -0.395 OA
ATOM     24  C   UNL     1     -22.343  -0.159 -12.205  1.00  0.00     0.172 A 
ATOM     25  C   UNL     1     -22.759  -0.710 -14.239  1.00  0.00     0.586 C 
ATOM     26  O   UNL     1     -23.413  -0.278 -13.037  1.00  0.00    -0.395 OA
ATOM     27  F   UNL     1     -23.282  -1.906 -14.612  1.00  0.00    -0.125 F 
ATOM     28  F   UNL     1     -23.031   0.180 -15.224  1.00  0.00    -0.125 F 
ENDBRANCH  16  18
ENDBRANCH   2  12
TORSDOF 3
ENDMDL
MODEL 3
REMARK VINA RESULT:    -7.376      1.912      2.455
REMARK INTER + INTRA:          -9.173
REMARK INTER:                  -8.827
REMARK INTRA:                  -0.346
REMARK UNBOUND:                -0.504
REMARK SMILES O=C(Nc1ccc2c(c1)OC(F)(F)O2)Nc1ccc(Cl)c(C(F)(F)F)c1
REMARK SMILES IDX 20 1 16 2 21 3 26 4 17 5 19 6 18 7 22 8 23 9 24 10 25 11
REMARK SMILES IDX 15 12 2 13 1 15 3 16 4 18 9 19 5 20 8 21 6 22 10 23 7 24
REMARK SMILES IDX 11 25 14 26 12 27 13 28
REMARK H PARENT 15 14 3 17
REMARK Flexibility Score: inf
ROOT
ATOM      1  Cl  UNL     1     -25.051  -3.680 -12.957  1.00  0.00    -0.084 Cl
ATOM      2  C   UNL     1     -21.748  -0.803 -11.860  1.00  0.00     0.043 A 
ATOM      3  C   UNL     1     -23.235  -1.728 -13.524  1.00  0.00     0.076 A 
ATOM      4  C   UNL     1     -22.217  -0.842 -13.173  1.00  0.00     0.040 A 
ATOM      5  C   UNL     1     -22.299  -1.648 -10.897  1.00  0.00     0.028 A 
ATOM      6  C   UNL     1     -23.787  -2.573 -12.562  1.00  0.00     0.053 A 
ATOM      7  C   UNL     1     -23.318  -2.534 -11.248  1.00  0.00     0.023 A 
ENDROOT
BRANCH   3   8
ATOM      8  C   UNL     1     -23.711  -1.738 -14.942  1.00  0.00     0.417 C 
ATOM      9  F   UNL     1     -24.955  -1.196 -15.078  1.00  0.00    -0.166 F 
ATOM     10  F   UNL     1     -22.907  -1.035 -15.790  1.00  0.00    -0.166 F 
ATOM     11  F   UNL     1     -23.793  -2.990 -15.478  1.00  0.00    -0.166 F 
ENDBRANCH   3   8
BRANCH   2  12
ATOM     12  N   UNL     1     -20.713   0.094 -11.505  1.00  0.00    -0.308 N 
ATOM     13  C   UNL     1     -19.496  -0.198 -10.868  1.00  0.00     0.323 C 
ATOM     14  H   UNL     1     -20.880   1.068 -11.744  1.00  0.00     0.171 HD
ATOM     15  O   UNL     1     -19.133  -1.314 -10.510  1.00  0.00    -0.248 OA
ATOM     16  N   UNL     1     -18.744   0.989 -10.695  1.00  0.00    -0.308 N 
ATOM     17  H   UNL     1     -19.174   1.843 -11.042  1.00  0.00     0.171 HD
BRANCH  16  18
ATOM     18  C   UNL     1     -17.486   1.146 -10.112  1.00  0.00     0.046 A 
ATOM     19  C   UNL     1     -16.340   0.809 -10.837  1.00  0.00     0.077 A 
ATOM     20  C   UNL     1     -17.384   1.640  -8.799  1.00  0.00     0.030 A 
ATOM     21  C   UNL     1     -15.119   0.981 -10.219  1.00  0.00     0.174 A 
ATOM     22  C   UNL     1     -16.135   1.805  -8.197  1.00  0.00     0.053 A 
ATOM     23  O   UNL     1     -13.902   0.709 -10.767  1.00  0.00    -0.395 OA
ATOM     24  C   UNL     1     -15.018   1.465  -8.933  1.00  0.00     0.172 A 
ATOM     25  C   UNL     1     -13.042   1.077  -9.679  1.00  0.00     0.586 C 
ATOM     26  O   UNL     1     -13.727   1.559  -8.513  1.00  0.00    -0.395 OA
ATOM     27  F   UNL     1     -12.188   2.040 -10.109  1.00  0.00    -0.125 F 
ATOM     28  F   UNL     1     -12.299  -0.002  -9.329  1.00  0.00    -0.125 F 
ENDBRANCH  16  18
ENDBRANCH   2  12
TORSDOF 3
ENDMDL
MODEL 4
REMARK VINA RESULT:    -7.304      3.971      9.466
REMARK INTER + INTRA:          -9.089
REMARK INTER:                  -8.557
REMARK INTRA:                  -0.532
REMARK UNBOUND:                -0.504
REMARK SMILES O=C(Nc1ccc2c(c1)OC(F)(F)O2)Nc1ccc(Cl)c(C(F)(F)F)c1
REMARK SMILES IDX 20 1 16 2 21 3 26 4 17 5 19 6 18 7 22 8 23 9 24 10 25 11
REMARK SMILES IDX 15 12 2 13 1 15 3 16 4 18 9 19 5 20 8 21 6 22 10 23 7 24
REMARK SMILES IDX 11 25 14 26 12 27 13 28
REMARK H PARENT 15 14 3 17
REMARK Flexibility Score: inf
ROOT
ATOM      1  Cl  UNL     1     -15.519   0.264  -8.320  1.00  0.00    -0.084 Cl
ATOM      2  C   UNL     1     -18.618  -0.139 -11.581  1.00  0.00     0.043 A 
ATOM      3  C   UNL     1     -17.236  -1.163  -9.883  1.00  0.00     0.076 A 
ATOM      4  C   UNL     1     -18.195  -1.275 -10.891  1.00  0.00     0.040 A 
ATOM      5  C   UNL     1     -18.085   1.110 -11.261  1.00  0.00     0.028 A 
ATOM      6  C   UNL     1     -16.703   0.086  -9.563  1.00  0.00     0.053 A 
ATOM      7  C   UNL     1     -17.126   1.223 -10.253  1.00  0.00     0.023 A 
ENDROOT
BRANCH   3   8
ATOM      8  C   UNL     1     -16.811  -2.404  -9.166  1.00  0.00     0.417 C 
ATOM      9  F   UNL     1     -17.548  -3.493  -9.527  1.00  0.00    -0.166 F 
ATOM     10  F   UNL     1     -15.510  -2.746  -9.397  1.00  0.00    -0.166 F 
ATOM     11  F   UNL     1     -16.924  -2.314  -7.810  1.00  0.00    -0.166 F 
ENDBRANCH   3   8
BRANCH   2  12
ATOM     12  N   UNL     1     -19.588  -0.253 -12.604  1.00  0.00    -0.308 N 
ATOM     13  C   UNL     1     -20.974  -0.426 -12.466  1.00  0.00     0.323 C 
ATOM     14  H   UNL     1     -19.227  -0.203 -13.553  1.00  0.00     0.171 HD
ATOM     15  O   UNL     1     -21.576  -0.507 -11.399  1.00  0.00    -0.248 OA
ATOM     16  N   UNL     1     -21.583  -0.494 -13.742  1.00  0.00    -0.308 N 
ATOM     17  H   UNL     1     -20.956  -0.412 -14.539  1.00  0.00     0.171 HD
BRANCH  16  18
ATOM     18  C   UNL     1     -22.933  -0.659 -14.056  1.00  0.00     0.046 A 
ATOM     19  C   UNL     1     -23.681   0.438 -14.491  1.00  0.00     0.077 A 
ATOM     20  C   UNL     1     -23.526  -1.928 -13.932  1.00  0.00     0.030 A 
ATOM     21  C   UNL     1     -25.011   0.227 -14.789  1.00  0.00     0.174 A 
ATOM     22  C   UNL     1     -24.876  -2.114 -14.242  1.00  0.00     0.053 A 
ATOM     23  O   UNL     1     -25.891   1.171 -15.225  1.00  0.00    -0.395 OA
ATOM     24  C   UNL     1     -25.593  -1.016 -14.668  1.00  0.00     0.172 A 
ATOM     25  C   UNL     1     -27.077   0.375 -15.357  1.00  0.00     0.586 C 
ATOM     26  O   UNL     1     -26.910  -1.008 -15.013  1.00  0.00    -0.395 OA
ATOM     27  F   UNL     1     -27.510   0.453 -16.641  1.00  0.00    -0.125 F 
ATOM     28  F   UNL     1     -28.044   0.904 -14.567  1.00  0.00    -0.125 F 
ENDBRANCH  16  18
ENDBRANCH   2  12
TORSDOF 3
ENDMDL
MODEL 5
REMARK VINA RESULT:    -7.304      2.893      4.136
REMARK INTER + INTRA:          -9.089
REMARK INTER:                  -8.587
REMARK INTRA:                  -0.501
REMARK UNBOUND:                -0.504
REMARK SMILES O=C(Nc1ccc2c(c1)OC(F)(F)O2)Nc1ccc(Cl)c(C(F)(F)F)c1
REMARK SMILES IDX 20 1 16 2 21 3 26 4 17 5 19 6 18 7 22 8 23 9 24 10 25 11
REMARK SMILES IDX 15 12 2 13 1 15 3 16 4 18 9 19 5 20 8 21 6 22 10 23 7 24
REMARK SMILES IDX 11 25 14 26 12 27 13 28
REMARK H PARENT 15 14 3 17
REMARK Flexibility Score: inf
ROOT
ATOM      1  Cl  UNL     1     -23.999  -2.704 -12.707  1.00  0.00    -0.084 Cl
ATOM      2  C   UNL     1     -20.409  -1.239 -10.392  1.00  0.00     0.043 A 
ATOM      3  C   UNL     1     -21.911  -1.008 -12.271  1.00  0.00     0.076 A 
ATOM      4  C   UNL     1     -20.804  -0.564 -11.546  1.00  0.00     0.040 A 
ATOM      5  C   UNL     1     -21.122  -2.358  -9.960  1.00  0.00     0.028 A 
ATOM      6  C   UNL     1     -22.623  -2.127 -11.839  1.00  0.00     0.053 A 
ATOM      7  C   UNL     1     -22.229  -2.803 -10.684  1.00  0.00     0.023 A 
ENDROOT
BRANCH   3   8
ATOM      8  C   UNL     1     -22.302  -0.256 -13.502  1.00  0.00     0.417 C 
ATOM      9  F   UNL     1     -23.571   0.240 -13.428  1.00  0.00    -0.166 F 
ATOM     10  F   UNL     1     -21.501   0.817 -13.761  1.00  0.00    -0.166 F 
ATOM     11  F   UNL     1     -22.267  -1.014 -14.636  1.00  0.00    -0.166 F 
ENDBRANCH   3   8
BRANCH   2  12
ATOM     12  N   UNL     1     -19.286  -0.790  -9.658  1.00  0.00    -0.308 N 
ATOM     13  C   UNL     1     -17.938  -0.793 -10.053  1.00  0.00     0.323 C 
ATOM     14  H   UNL     1     -19.489  -0.420  -8.734  1.00  0.00     0.171 HD
ATOM     15  O   UNL     1     -17.515  -1.201 -11.130  1.00  0.00    -0.248 OA
ATOM     16  N   UNL     1     -17.131  -0.256  -9.021  1.00  0.00    -0.308 N 
ATOM     17  H   UNL     1     -17.623   0.042  -8.181  1.00  0.00     0.171 HD
BRANCH  16  18
ATOM     18  C   UNL     1     -15.747  -0.078  -9.000  1.00  0.00     0.046 A 
ATOM     19  C   UNL     1     -15.211   1.201  -9.173  1.00  0.00     0.077 A 
ATOM     20  C   UNL     1     -14.906  -1.188  -8.807  1.00  0.00     0.030 A 
ATOM     21  C   UNL     1     -13.839   1.328  -9.145  1.00  0.00     0.174 A 
ATOM     22  C   UNL     1     -13.518  -1.031  -8.783  1.00  0.00     0.053 A 
ATOM     23  O   UNL     1     -13.141   2.489  -9.294  1.00  0.00    -0.395 OA
ATOM     24  C   UNL     1     -13.013   0.241  -8.956  1.00  0.00     0.172 A 
ATOM     25  C   UNL     1     -11.798   1.998  -9.177  1.00  0.00     0.586 C 
ATOM     26  O   UNL     1     -11.695   0.583  -8.961  1.00  0.00    -0.395 OA
ATOM     27  F   UNL     1     -11.191   2.639  -8.146  1.00  0.00    -0.125 F 
ATOM     28  F   UNL     1     -11.121   2.313 -10.309  1.00  0.00    -0.125 F 
ENDBRANCH  16  18
ENDBRANCH   2  12
TORSDOF 3
ENDMDL
MODEL 6
REMARK VINA RESULT:    -7.263      3.927      9.658
REMARK INTER + INTRA:          -9.040
REMARK INTER:                  -8.716
REMARK INTRA:                  -0.325
REMARK UNBOUND:                -0.504
REMARK SMILES O=C(Nc1ccc2c(c1)OC(F)(F)O2)Nc1ccc(Cl)c(C(F)(F)F)c1
REMARK SMILES IDX 20 1 16 2 21 3 26 4 17 5 19 6 18 7 22 8 23 9 24 10 25 11
REMARK SMILES IDX 15 12 2 13 1 15 3 16 4 18 9 19 5 20 8 21 6 22 10 23 7 24
REMARK SMILES IDX 11 25 14 26 12 27 13 28
REMARK H PARENT 15 14 3 17
REMARK Flexibility Score: inf
ROOT
ATOM      1  Cl  UNL     1     -15.173   1.325  -7.841  1.00  0.00    -0.084 Cl
ATOM      2  C   UNL     1     -18.428   1.355 -10.972  1.00  0.00     0.043 A 
ATOM      3  C   UNL     1     -17.696   1.857  -8.724  1.00  0.00     0.076 A 
ATOM      4  C   UNL     1     -18.693   1.862  -9.700  1.00  0.00     0.040 A 
ATOM      5  C   UNL     1     -17.165   0.843 -11.269  1.00  0.00     0.028 A 
ATOM      6  C   UNL     1     -16.433   1.345  -9.021  1.00  0.00     0.053 A 
ATOM      7  C   UNL     1     -16.167   0.837 -10.293  1.00  0.00     0.023 A 
ENDROOT
BRANCH   3   8
ATOM      8  C   UNL     1     -18.020   2.411  -7.374  1.00  0.00     0.417 C 
ATOM      9  F   UNL     1     -19.217   3.066  -7.353  1.00  0.00    -0.166 F 
ATOM     10  F   UNL     1     -18.104   1.458  -6.402  1.00  0.00    -0.166 F 
ATOM     11  F   UNL     1     -17.099   3.309  -6.920  1.00  0.00    -0.166 F 
ENDBRANCH   3   8
BRANCH   2  12
ATOM     12  N   UNL     1     -19.439   1.358 -11.961  1.00  0.00    -0.308 N 
ATOM     13  C   UNL     1     -20.543   0.497 -12.071  1.00  0.00     0.323 C 
ATOM     14  H   UNL     1     -19.348   2.076 -12.675  1.00  0.00     0.171 HD
ATOM     15  O   UNL     1     -20.807  -0.421 -11.301  1.00  0.00    -0.248 OA
ATOM     16  N   UNL     1     -21.314   0.843 -13.208  1.00  0.00    -0.308 N 
ATOM     17  H   UNL     1     -20.971   1.629 -13.756  1.00  0.00     0.171 HD
BRANCH  16  18
ATOM     18  C   UNL     1     -22.484   0.248 -13.681  1.00  0.00     0.046 A 
ATOM     19  C   UNL     1     -23.601   1.041 -13.957  1.00  0.00     0.077 A 
ATOM     20  C   UNL     1     -22.528  -1.144 -13.875  1.00  0.00     0.030 A 
ATOM     21  C   UNL     1     -24.735   0.410 -14.422  1.00  0.00     0.174 A 
ATOM     22  C   UNL     1     -23.690  -1.759 -14.347  1.00  0.00     0.053 A 
ATOM     23  O   UNL     1     -25.912   1.016 -14.743  1.00  0.00    -0.395 OA
ATOM     24  C   UNL     1     -24.779  -0.954 -14.612  1.00  0.00     0.172 A 
ATOM     25  C   UNL     1     -26.685  -0.123 -15.149  1.00  0.00     0.586 C 
ATOM     26  O   UNL     1     -25.988  -1.375 -15.076  1.00  0.00    -0.395 OA
ATOM     27  F   UNL     1     -27.099   0.069 -16.427  1.00  0.00    -0.125 F 
ATOM     28  F   UNL     1     -27.791  -0.197 -14.368  1.00  0.00    -0.125 F 
ENDBRANCH  16  18
ENDBRANCH   2  12
TORSDOF 3
ENDMDL
MODEL 7
REMARK VINA RESULT:    -7.243      3.755      9.704
REMARK INTER + INTRA:          -9.017
REMARK INTER:                  -8.775
REMARK INTRA:                  -0.243
REMARK UNBOUND:                -0.504
REMARK SMILES O=C(Nc1ccc2c(c1)OC(F)(F)O2)Nc1ccc(Cl)c(C(F)(F)F)c1
REMARK SMILES IDX 20 1 16 2 21 3 26 4 17 5 19 6 18 7 22 8 23 9 24 10 25 11
REMARK SMILES IDX 15 12 2 13 1 15 3 16 4 18 9 19 5 20 8 21 6 22 10 23 7 24
REMARK SMILES IDX 11 25 14 26 12 27 13 28
REMARK H PARENT 15 14 3 17
REMARK Flexibility Score: inf
ROOT
ATOM      1  Cl  UNL     1     -13.435   1.343  -6.864  1.00  0.00    -0.084 Cl
ATOM      2  C   UNL     1     -17.068   1.128  -9.537  1.00  0.00     0.043 A 
ATOM      3  C   UNL     1     -14.666   1.205  -9.292  1.00  0.00     0.076 A 
ATOM      4  C   UNL     1     -15.795   1.137 -10.107  1.00  0.00     0.040 A 
ATOM      5  C   UNL     1     -17.212   1.184  -8.151  1.00  0.00     0.028 A 
ATOM      6  C   UNL     1     -14.809   1.262  -7.905  1.00  0.00     0.053 A 
ATOM      7  C   UNL     1     -16.082   1.252  -7.334  1.00  0.00     0.023 A 
ENDROOT
BRANCH   3   8
ATOM      8  C   UNL     1     -13.319   1.211  -9.942  1.00  0.00     0.417 C 
ATOM      9  F   UNL     1     -13.395   1.094 -11.299  1.00  0.00    -0.166 F 
ATOM     10  F   UNL     1     -12.609   2.353  -9.709  1.00  0.00    -0.166 F 
ATOM     11  F   UNL     1     -12.511   0.194  -9.527  1.00  0.00    -0.166 F 
ENDBRANCH   3   8
BRANCH   2  12
ATOM     12  N   UNL     1     -18.214   1.061 -10.365  1.00  0.00    -0.308 N 
ATOM     13  C   UNL     1     -19.042  -0.047 -10.606  1.00  0.00     0.323 C 
ATOM     14  H   UNL     1     -18.460   1.926 -10.839  1.00  0.00     0.171 HD
ATOM     15  O   UNL     1     -18.893  -1.164 -10.120  1.00  0.00    -0.248 OA
ATOM     16  N   UNL     1     -20.081   0.311 -11.498  1.00  0.00    -0.308 N 
ATOM     17  H   UNL     1     -20.077   1.276 -11.821  1.00  0.00     0.171 HD
BRANCH  16  18
ATOM     18  C   UNL     1     -21.115  -0.483 -11.997  1.00  0.00     0.046 A 
ATOM     19  C   UNL     1     -21.519  -0.338 -13.326  1.00  0.00     0.077 A 
ATOM     20  C   UNL     1     -21.739  -1.422 -11.156  1.00  0.00     0.030 A 
ATOM     21  C   UNL     1     -22.544  -1.144 -13.775  1.00  0.00     0.174 A 
ATOM     22  C   UNL     1     -22.775  -2.227 -11.636  1.00  0.00     0.053 A 
ATOM     23  O   UNL     1     -23.069  -1.144 -15.032  1.00  0.00    -0.395 OA
ATOM     24  C   UNL     1     -23.156  -2.064 -12.952  1.00  0.00     0.172 A 
ATOM     25  C   UNL     1     -24.070  -2.162 -14.893  1.00  0.00     0.586 C 
ATOM     26  O   UNL     1     -24.140  -2.757 -13.589  1.00  0.00    -0.395 OA
ATOM     27  F   UNL     1     -23.824  -3.138 -15.803  1.00  0.00    -0.125 F 
ATOM     28  F   UNL     1     -25.279  -1.624 -15.189  1.00  0.00    -0.125 F 
ENDBRANCH  16  18
ENDBRANCH   2  12
TORSDOF 3
ENDMDL
MODEL 8
REMARK VINA RESULT:    -7.234      6.355      9.551
REMARK INTER + INTRA:          -9.006
REMARK INTER:                  -8.618
REMARK INTRA:                  -0.388
REMARK UNBOUND:                -0.504
REMARK SMILES O=C(Nc1ccc2c(c1)OC(F)(F)O2)Nc1ccc(Cl)c(C(F)(F)F)c1
REMARK SMILES IDX 20 1 16 2 21 3 26 4 17 5 19 6 18 7 22 8 23 9 24 10 25 11
REMARK SMILES IDX 15 12 2 13 1 15 3 16 4 18 9 19 5 20 8 21 6 22 10 23 7 24
REMARK SMILES IDX 11 25 14 26 12 27 13 28
REMARK H PARENT 15 14 3 17
REMARK Flexibility Score: inf
ROOT
ATOM      1  Cl  UNL     1     -20.119  11.914 -11.315  1.00  0.00    -0.084 Cl
ATOM      2  C   UNL     1     -20.597   7.445 -10.880  1.00  0.00     0.043 A 
ATOM      3  C   UNL     1     -19.334   9.334 -11.701  1.00  0.00     0.076 A 
ATOM      4  C   UNL     1     -19.491   7.955 -11.559  1.00  0.00     0.040 A 
ATOM      5  C   UNL     1     -21.546   8.314 -10.341  1.00  0.00     0.028 A 
ATOM      6  C   UNL     1     -20.282  10.203 -11.162  1.00  0.00     0.053 A 
ATOM      7  C   UNL     1     -21.389   9.693 -10.482  1.00  0.00     0.023 A 
ENDROOT
BRANCH   3   8
ATOM      8  C   UNL     1     -18.133   9.840 -12.435  1.00  0.00     0.417 C 
ATOM      9  F   UNL     1     -17.325  10.606 -11.647  1.00  0.00    -0.166 F 
ATOM     10  F   UNL     1     -17.337   8.847 -12.924  1.00  0.00    -0.166 F 
ATOM     11  F   UNL     1     -18.443  10.616 -13.512  1.00  0.00    -0.166 F 
ENDBRANCH   3   8
BRANCH   2  12
ATOM     12  N   UNL     1     -20.758   6.047 -10.738  1.00  0.00    -0.308 N 
ATOM     13  C   UNL     1     -20.821   5.076 -11.751  1.00  0.00     0.323 C 
ATOM     14  H   UNL     1     -20.836   5.713  -9.781  1.00  0.00     0.171 HD
ATOM     15  O   UNL     1     -20.743   5.301 -12.955  1.00  0.00    -0.248 OA
ATOM     16  N   UNL     1     -20.988   3.791 -11.180  1.00  0.00    -0.308 N 
ATOM     17  H   UNL     1     -21.036   3.759 -10.164  1.00  0.00     0.171 HD
BRANCH  16  18
ATOM     18  C   UNL     1     -21.095   2.558 -11.825  1.00  0.00     0.046 A 
ATOM     19  C   UNL     1     -22.205   2.294 -12.631  1.00  0.00     0.077 A 
ATOM     20  C   UNL     1     -20.086   1.594 -11.657  1.00  0.00     0.030 A 
ATOM     21  C   UNL     1     -22.270   1.063 -13.248  1.00  0.00     0.174 A 
ATOM     22  C   UNL     1     -20.174   0.354 -12.294  1.00  0.00     0.053 A 
ATOM     23  O   UNL     1     -23.269   0.629 -14.065  1.00  0.00    -0.395 OA
ATOM     24  C   UNL     1     -21.280   0.117 -13.083  1.00  0.00     0.172 A 
ATOM     25  C   UNL     1     -22.789  -0.684 -14.385  1.00  0.00     0.586 C 
ATOM     26  O   UNL     1     -21.535  -1.026 -13.778  1.00  0.00    -0.395 OA
ATOM     27  F   UNL     1     -22.659  -0.782 -15.732  1.00  0.00    -0.125 F 
ATOM     28  F   UNL     1     -23.719  -1.592 -13.998  1.00  0.00    -0.125 F 
ENDBRANCH  16  18
ENDBRANCH   2  12
TORSDOF 3
ENDMDL
MODEL 9
REMARK VINA RESULT:    -7.155      5.624      9.309
REMARK INTER + INTRA:          -8.913
REMARK INTER:                  -8.593
REMARK INTRA:                  -0.320
REMARK UNBOUND:                -0.504
REMARK SMILES O=C(Nc1ccc2c(c1)OC(F)(F)O2)Nc1ccc(Cl)c(C(F)(F)F)c1
REMARK SMILES IDX 20 1 16 2 21 3 26 4 17 5 19 6 18 7 22 8 23 9 24 10 25 11
REMARK SMILES IDX 15 12 2 13 1 15 3 16 4 18 9 19 5 20 8 21 6 22 10 23 7 24
REMARK SMILES IDX 11 25 14 26 12 27 13 28
REMARK H PARENT 15 14 3 17
REMARK Flexibility Score: inf
ROOT
ATOM      1  Cl  UNL     1     -20.975  10.152 -10.398  1.00  0.00    -0.084 Cl
ATOM      2  C   UNL     1     -21.387   6.195 -12.534  1.00  0.00     0.043 A 
ATOM      3  C   UNL     1     -20.035   8.105 -11.933  1.00  0.00     0.076 A 
ATOM      4  C   UNL     1     -20.174   6.881 -12.587  1.00  0.00     0.040 A 
ATOM      5  C   UNL     1     -22.461   6.731 -11.825  1.00  0.00     0.028 A 
ATOM      6  C   UNL     1     -21.110   8.642 -11.223  1.00  0.00     0.053 A 
ATOM      7  C   UNL     1     -22.324   7.956 -11.170  1.00  0.00     0.023 A 
ENDROOT
BRANCH   3   8
ATOM      8  C   UNL     1     -18.719   8.809 -12.012  1.00  0.00     0.417 C 
ATOM      9  F   UNL     1     -17.778   8.081 -12.681  1.00  0.00    -0.166 F 
ATOM     10  F   UNL     1     -18.782  10.009 -12.657  1.00  0.00    -0.166 F 
ATOM     11  F   UNL     1     -18.175   9.084 -10.792  1.00  0.00    -0.166 F 
ENDBRANCH   3   8
BRANCH   2  12
ATOM     12  N   UNL     1     -21.527   4.954 -13.200  1.00  0.00    -0.308 N 
ATOM     13  C   UNL     1     -21.866   3.709 -12.645  1.00  0.00     0.323 C 
ATOM     14  H   UNL     1     -21.361   4.977 -14.202  1.00  0.00     0.171 HD
ATOM     15  O   UNL     1     -22.098   3.501 -11.459  1.00  0.00    -0.248 OA
ATOM     16  N   UNL     1     -21.900   2.722 -13.659  1.00  0.00    -0.308 N 
ATOM     17  H   UNL     1     -21.683   3.043 -14.600  1.00  0.00     0.171 HD
BRANCH  16  18
ATOM     18  C   UNL     1     -22.191   1.362 -13.542  1.00  0.00     0.046 A 
ATOM     19  C   UNL     1     -23.238   0.812 -14.285  1.00  0.00     0.077 A 
ATOM     20  C   UNL     1     -21.428   0.559 -12.676  1.00  0.00     0.030 A 
ATOM     21  C   UNL     1     -23.489  -0.536 -14.137  1.00  0.00     0.174 A 
ATOM     22  C   UNL     1     -21.703  -0.805 -12.544  1.00  0.00     0.053 A 
ATOM     23  O   UNL     1     -24.462  -1.242 -14.776  1.00  0.00    -0.395 OA
ATOM     24  C   UNL     1     -22.742  -1.324 -13.288  1.00  0.00     0.172 A 
ATOM     25  C   UNL     1     -24.234  -2.549 -14.229  1.00  0.00     0.586 C 
ATOM     26  O   UNL     1     -23.151  -2.622 -13.290  1.00  0.00    -0.395 OA
ATOM     27  F   UNL     1     -23.982  -3.408 -15.249  1.00  0.00    -0.125 F 
ATOM     28  F   UNL     1     -25.369  -2.966 -13.615  1.00  0.00    -0.125 F 
ENDBRANCH  16  18
ENDBRANCH   2  12
TORSDOF 3
ENDMDL
MODEL 10
REMARK VINA RESULT:    -7.093      3.603      9.640
REMARK INTER + INTRA:          -8.840
REMARK INTER:                  -8.644
REMARK INTRA:                  -0.196
REMARK UNBOUND:                -0.504
REMARK SMILES O=C(Nc1ccc2c(c1)OC(F)(F)O2)Nc1ccc(Cl)c(C(F)(F)F)c1
REMARK SMILES IDX 20 1 16 2 21 3 26 4 17 5 19 6 18 7 22 8 23 9 24 10 25 11
REMARK SMILES IDX 15 12 2 13 1 15 3 16 4 18 9 19 5 20 8 21 6 22 10 23 7 24
REMARK SMILES IDX 11 25 14 26 12 27 13 28
REMARK H PARENT 15 14 3 17
REMARK Flexibility Score: inf
ROOT
ATOM      1  Cl  UNL     1     -15.586   1.746  -7.326  1.00  0.00    -0.084 Cl
ATOM      2  C   UNL     1     -18.462   1.350 -10.786  1.00  0.00     0.043 A 
ATOM      3  C   UNL     1     -16.215   1.168  -9.914  1.00  0.00     0.076 A 
ATOM      4  C   UNL     1     -17.113   1.047 -10.975  1.00  0.00     0.040 A 
ATOM      5  C   UNL     1     -18.913   1.771  -9.535  1.00  0.00     0.028 A 
ATOM      6  C   UNL     1     -16.666   1.589  -8.663  1.00  0.00     0.053 A 
ATOM      7  C   UNL     1     -18.015   1.892  -8.473  1.00  0.00     0.023 A 
ENDROOT
BRANCH   3   8
ATOM      8  C   UNL     1     -14.779   0.832 -10.158  1.00  0.00     0.417 C 
ATOM      9  F   UNL     1     -14.461   0.834 -11.484  1.00  0.00    -0.166 F 
ATOM     10  F   UNL     1     -13.910   1.704  -9.569  1.00  0.00    -0.166 F 
ATOM     11  F   UNL     1     -14.423  -0.400  -9.694  1.00  0.00    -0.166 F 
ENDBRANCH   3   8
BRANCH   2  12
ATOM     12  N   UNL     1     -19.372   1.230 -11.862  1.00  0.00    -0.308 N 
ATOM     13  C   UNL     1     -20.581   0.518 -11.896  1.00  0.00     0.323 C 
ATOM     14  H   UNL     1     -19.110   1.724 -12.711  1.00  0.00     0.171 HD
ATOM     15  O   UNL     1     -21.048  -0.132 -10.966  1.00  0.00    -0.248 OA
ATOM     16  N   UNL     1     -21.189   0.657 -13.167  1.00  0.00    -0.308 N 
ATOM     17  H   UNL     1     -20.683   1.227 -13.842  1.00  0.00     0.171 HD
BRANCH  16  18
ATOM     18  C   UNL     1     -22.392   0.115 -13.622  1.00  0.00     0.046 A 
ATOM     19  C   UNL     1     -23.464   0.961 -13.917  1.00  0.00     0.077 A 
ATOM     20  C   UNL     1     -22.513  -1.277 -13.780  1.00  0.00     0.030 A 
ATOM     21  C   UNL     1     -24.633   0.381 -14.363  1.00  0.00     0.174 A 
ATOM     22  C   UNL     1     -23.708  -1.840 -14.234  1.00  0.00     0.053 A 
ATOM     23  O   UNL     1     -25.776   1.042 -14.697  1.00  0.00    -0.395 OA
ATOM     24  C   UNL     1     -24.752  -0.983 -14.517  1.00  0.00     0.172 A 
ATOM     25  C   UNL     1     -26.611  -0.062 -15.072  1.00  0.00     0.586 C 
ATOM     26  O   UNL     1     -25.984  -1.349 -14.968  1.00  0.00    -0.395 OA
ATOM     27  F   UNL     1     -27.019   0.119 -16.354  1.00  0.00    -0.125 F 
ATOM     28  F   UNL     1     -27.717  -0.055 -14.287  1.00  0.00    -0.125 F 
ENDBRANCH  16  18
ENDBRANCH   2  12
TORSDOF 3
ENDMDL
MODEL 11
REMARK VINA RESULT:    -7.083      3.959      9.665
REMARK INTER + INTRA:          -8.829
REMARK INTER:                  -8.243
REMARK INTRA:                  -0.586
REMARK UNBOUND:                -0.504
REMARK SMILES O=C(Nc1ccc2c(c1)OC(F)(F)O2)Nc1ccc(Cl)c(C(F)(F)F)c1
REMARK SMILES IDX 20 1 16 2 21 3 26 4 17 5 19 6 18 7 22 8 23 9 24 10 25 11
REMARK SMILES IDX 15 12 2 13 1 15 3 16 4 18 9 19 5 20 8 21 6 22 10 23 7 24
REMARK SMILES IDX 11 25 14 26 12 27 13 28
REMARK H PARENT 15 14 3 17
REMARK Flexibility Score: inf
ROOT
ATOM      1  Cl  UNL     1     -16.332   1.174  -9.177  1.00  0.00    -0.084 Cl
ATOM      2  C   UNL     1     -19.622  -0.199 -11.949  1.00  0.00     0.043 A 
ATOM      3  C   UNL     1     -17.945  -0.720 -10.290  1.00  0.00     0.076 A 
ATOM      4  C   UNL     1     -18.964  -1.132 -11.148  1.00  0.00     0.040 A 
ATOM      5  C   UNL     1     -19.262   1.147 -11.889  1.00  0.00     0.028 A 
ATOM      6  C   UNL     1     -17.585   0.626 -10.230  1.00  0.00     0.053 A 
ATOM      7  C   UNL     1     -18.243   1.561 -11.030  1.00  0.00     0.023 A 
ENDROOT
BRANCH   3   8
ATOM      8  C   UNL     1     -17.265  -1.751  -9.447  1.00  0.00     0.417 C 
ATOM      9  F   UNL     1     -17.777  -3.001  -9.638  1.00  0.00    -0.166 F 
ATOM     10  F   UNL     1     -15.928  -1.859  -9.693  1.00  0.00    -0.166 F 
ATOM     11  F   UNL     1     -17.366  -1.512  -8.108  1.00  0.00    -0.166 F 
ENDBRANCH   3   8
BRANCH   2  12
ATOM     12  N   UNL     1     -20.654  -0.617 -12.821  1.00  0.00    -0.308 N 
ATOM     13  C   UNL     1     -22.035  -0.663 -12.568  1.00  0.00     0.323 C 
ATOM     14  H   UNL     1     -20.349  -0.920 -13.743  1.00  0.00     0.171 HD
ATOM     15  O   UNL     1     -22.574  -0.337 -11.515  1.00  0.00    -0.248 OA
ATOM     16  N   UNL     1     -22.720  -1.145 -13.710  1.00  0.00    -0.308 N 
ATOM     17  H   UNL     1     -22.139  -1.378 -14.512  1.00  0.00     0.171 HD
BRANCH  16  18
ATOM     18  C   UNL     1     -24.090  -1.344 -13.884  1.00  0.00     0.046 A 
ATOM     19  C   UNL     1     -24.681  -2.523 -13.423  1.00  0.00     0.077 A 
ATOM     20  C   UNL     1     -24.862  -0.357 -14.522  1.00  0.00     0.030 A 
ATOM     21  C   UNL     1     -26.038  -2.677 -13.618  1.00  0.00     0.174 A 
ATOM     22  C   UNL     1     -26.235  -0.537 -14.706  1.00  0.00     0.053 A 
ATOM     23  O   UNL     1     -26.783  -3.753 -13.238  1.00  0.00    -0.395 OA
ATOM     24  C   UNL     1     -26.795  -1.710 -14.243  1.00  0.00     0.172 A 
ATOM     25  C   UNL     1     -28.078  -3.343 -13.698  1.00  0.00     0.586 C 
ATOM     26  O   UNL     1     -28.108  -2.056 -14.332  1.00  0.00    -0.395 OA
ATOM     27  F   UNL     1     -28.927  -3.324 -12.639  1.00  0.00    -0.125 F 
ATOM     28  F   UNL     1     -28.540  -4.269 -14.574  1.00  0.00    -0.125 F 
ENDBRANCH  16  18
ENDBRANCH   2  12
TORSDOF 3
ENDMDL
MODEL 12
REMARK VINA RESULT:    -7.038      2.133      2.758
REMARK INTER + INTRA:          -8.776
REMARK INTER:                  -8.250
REMARK INTRA:                  -0.526
REMARK UNBOUND:                -0.504
REMARK SMILES O=C(Nc1ccc2c(c1)OC(F)(F)O2)Nc1ccc(Cl)c(C(F)(F)F)c1
REMARK SMILES IDX 20 1 16 2 21 3 26 4 17 5 19 6 18 7 22 8 23 9 24 10 25 11
REMARK SMILES IDX 15 12 2 13 1 15 3 16 4 18 9 19 5 20 8 21 6 22 10 23 7 24
REMARK SMILES IDX 11 25 14 26 12 27 13 28
REMARK H PARENT 15 14 3 17
REMARK Flexibility Score: inf
ROOT
ATOM      1  Cl  UNL     1     -27.732  -2.619 -14.096  1.00  0.00    -0.084 Cl
ATOM      2  C   UNL     1     -23.403  -1.411 -13.652  1.00  0.00     0.043 A 
ATOM      3  C   UNL     1     -25.652  -0.877 -14.357  1.00  0.00     0.076 A 
ATOM      4  C   UNL     1     -24.313  -0.514 -14.213  1.00  0.00     0.040 A 
ATOM      5  C   UNL     1     -23.833  -2.670 -13.233  1.00  0.00     0.028 A 
ATOM      6  C   UNL     1     -26.082  -2.136 -13.938  1.00  0.00     0.053 A 
ATOM      7  C   UNL     1     -25.173  -3.033 -13.377  1.00  0.00     0.023 A 
ENDROOT
BRANCH   3   8
ATOM      8  C   UNL     1     -26.595   0.113 -14.961  1.00  0.00     0.417 C 
ATOM      9  F   UNL     1     -27.199  -0.363 -16.088  1.00  0.00    -0.166 F 
ATOM     10  F   UNL     1     -27.609   0.478 -14.125  1.00  0.00    -0.166 F 
ATOM     11  F   UNL     1     -25.995   1.281 -15.329  1.00  0.00    -0.166 F 
ENDBRANCH   3   8
BRANCH   2  12
ATOM     12  N   UNL     1     -22.045  -1.044 -13.508  1.00  0.00    -0.308 N 
ATOM     13  C   UNL     1     -21.339  -0.788 -12.321  1.00  0.00     0.323 C 
ATOM     14  H   UNL     1     -21.523  -0.957 -14.376  1.00  0.00     0.171 HD
ATOM     15  O   UNL     1     -21.811  -0.845 -11.189  1.00  0.00    -0.248 OA
ATOM     16  N   UNL     1     -19.997  -0.450 -12.619  1.00  0.00    -0.308 N 
ATOM     17  H   UNL     1     -19.749  -0.443 -13.606  1.00  0.00     0.171 HD
BRANCH  16  18
ATOM     18  C   UNL     1     -18.964  -0.126 -11.739  1.00  0.00     0.046 A 
ATOM     19  C   UNL     1     -18.171  -1.141 -11.198  1.00  0.00     0.077 A 
ATOM     20  C   UNL     1     -18.731   1.220 -11.405  1.00  0.00     0.030 A 
ATOM     21  C   UNL     1     -17.163  -0.774 -10.333  1.00  0.00     0.174 A 
ATOM     22  C   UNL     1     -17.702   1.566 -10.526  1.00  0.00     0.053 A 
ATOM     23  O   UNL     1     -16.294  -1.620  -9.712  1.00  0.00    -0.395 OA
ATOM     24  C   UNL     1     -16.934   0.545 -10.005  1.00  0.00     0.172 A 
ATOM     25  C   UNL     1     -15.508  -0.680  -8.966  1.00  0.00     0.586 C 
ATOM     26  O   UNL     1     -15.894   0.691  -9.139  1.00  0.00    -0.395 OA
ATOM     27  F   UNL     1     -14.209  -0.814  -9.334  1.00  0.00    -0.125 F 
ATOM     28  F   UNL     1     -15.594  -0.992  -7.649  1.00  0.00    -0.125 F 
ENDBRANCH  16  18
ENDBRANCH   2  12
TORSDOF 3
ENDMDL
MODEL 13
REMARK VINA RESULT:    -6.953      2.463      3.543
REMARK INTER + INTRA:          -8.676
REMARK INTER:                  -8.222
REMARK INTRA:                  -0.454
REMARK UNBOUND:                -0.504
REMARK SMILES O=C(Nc1ccc2c(c1)OC(F)(F)O2)Nc1ccc(Cl)c(C(F)(F)F)c1
REMARK SMILES IDX 20 1 16 2 21 3 26 4 17 5 19 6 18 7 22 8 23 9 24 10 25 11
REMARK SMILES IDX 15 12 2 13 1 15 3 16 4 18 9 19 5 20 8 21 6 22 10 23 7 24
REMARK SMILES IDX 11 25 14 26 12 27 13 28
REMARK H PARENT 15 14 3 17
REMARK Flexibility Score: inf
ROOT
ATOM      1  Cl  UNL     1     -23.747   0.009 -14.279  1.00  0.00    -0.084 Cl
ATOM      2  C   UNL     1     -20.342   0.073 -11.314  1.00  0.00     0.043 A 
ATOM      3  C   UNL     1     -22.297  -1.024 -12.215  1.00  0.00     0.076 A 
ATOM      4  C   UNL     1     -21.240  -0.994 -11.306  1.00  0.00     0.040 A 
ATOM      5  C   UNL     1     -20.499   1.110 -12.234  1.00  0.00     0.028 A 
ATOM      6  C   UNL     1     -22.454   0.013 -13.135  1.00  0.00     0.053 A 
ATOM      7  C   UNL     1     -21.556   1.081 -13.144  1.00  0.00     0.023 A 
ENDROOT
BRANCH   3   8
ATOM      8  C   UNL     1     -23.236  -2.186 -12.175  1.00  0.00     0.417 C 
ATOM      9  F   UNL     1     -24.515  -1.813 -11.880  1.00  0.00    -0.166 F 
ATOM     10  F   UNL     1     -23.313  -2.864 -13.356  1.00  0.00    -0.166 F 
ATOM     11  F   UNL     1     -22.901  -3.124 -11.243  1.00  0.00    -0.166 F 
ENDBRANCH   3   8
BRANCH   2  12
ATOM     12  N   UNL     1     -19.271   0.104 -10.390  1.00  0.00    -0.308 N 
ATOM     13  C   UNL     1     -17.895   0.160 -10.663  1.00  0.00     0.323 C 
ATOM     14  H   UNL     1     -19.541   0.084  -9.410  1.00  0.00     0.171 HD
ATOM     15  O   UNL     1     -17.394   0.191 -11.783  1.00  0.00    -0.248 OA
ATOM     16  N   UNL     1     -17.162   0.175  -9.451  1.00  0.00    -0.308 N 
ATOM     17  H   UNL     1     -17.714   0.144  -8.597  1.00  0.00     0.171 HD
BRANCH  16  18
ATOM     18  C   UNL     1     -15.779   0.226  -9.270  1.00  0.00     0.046 A 
ATOM     19  C   UNL     1     -15.124   1.460  -9.291  1.00  0.00     0.077 A 
ATOM     20  C   UNL     1     -15.059  -0.964  -9.069  1.00  0.00     0.030 A 
ATOM     21  C   UNL     1     -13.757   1.462  -9.108  1.00  0.00     0.174 A 
ATOM     22  C   UNL     1     -13.674  -0.935  -8.886  1.00  0.00     0.053 A 
ATOM     23  O   UNL     1     -12.954   2.562  -9.096  1.00  0.00    -0.395 OA
ATOM     24  C   UNL     1     -13.050   0.296  -8.911  1.00  0.00     0.172 A 
ATOM     25  C   UNL     1     -11.678   1.947  -8.872  1.00  0.00     0.586 C 
ATOM     26  O   UNL     1     -11.717   0.518  -8.750  1.00  0.00    -0.395 OA
ATOM     27  F   UNL     1     -11.140   2.464  -7.738  1.00  0.00    -0.125 F 
ATOM     28  F   UNL     1     -10.854   2.271  -9.899  1.00  0.00    -0.125 F 
ENDBRANCH  16  18
ENDBRANCH   2  12
TORSDOF 3
ENDMDL
MODEL 14
REMARK VINA RESULT:    -6.952      3.929     10.055
REMARK INTER + INTRA:          -8.674
REMARK INTER:                  -8.283
REMARK INTRA:                  -0.392
REMARK UNBOUND:                -0.504
REMARK SMILES O=C(Nc1ccc2c(c1)OC(F)(F)O2)Nc1ccc(Cl)c(C(F)(F)F)c1
REMARK SMILES IDX 20 1 16 2 21 3 26 4 17 5 19 6 18 7 22 8 23 9 24 10 25 11
REMARK SMILES IDX 15 12 2 13 1 15 3 16 4 18 9 19 5 20 8 21 6 22 10 23 7 24
REMARK SMILES IDX 11 25 14 26 12 27 13 28
REMARK H PARENT 15 14 3 17
REMARK Flexibility Score: inf
ROOT
ATOM      1  Cl  UNL     1     -11.562  -0.696  -7.842  1.00  0.00    -0.084 Cl
ATOM      2  C   UNL     1     -15.713   0.580  -9.081  1.00  0.00     0.043 A 
ATOM      3  C   UNL     1     -13.388   1.128  -8.717  1.00  0.00     0.076 A 
ATOM      4  C   UNL     1     -14.674   1.510  -9.100  1.00  0.00     0.040 A 
ATOM      5  C   UNL     1     -15.466  -0.733  -8.682  1.00  0.00     0.028 A 
ATOM      6  C   UNL     1     -13.141  -0.185  -8.318  1.00  0.00     0.053 A 
ATOM      7  C   UNL     1     -14.180  -1.117  -8.300  1.00  0.00     0.023 A 
ENDROOT
BRANCH   3   8
ATOM      8  C   UNL     1     -12.301   2.154  -8.752  1.00  0.00     0.417 C 
ATOM      9  F   UNL     1     -11.321   1.846  -9.650  1.00  0.00    -0.166 F 
ATOM     10  F   UNL     1     -12.740   3.399  -9.099  1.00  0.00    -0.166 F 
ATOM     11  F   UNL     1     -11.669   2.317  -7.555  1.00  0.00    -0.166 F 
ENDBRANCH   3   8
BRANCH   2  12
ATOM     12  N   UNL     1     -17.017   0.969  -9.467  1.00  0.00    -0.308 N 
ATOM     13  C   UNL     1     -17.706   0.634 -10.645  1.00  0.00     0.323 C 
ATOM     14  H   UNL     1     -17.509   1.562  -8.805  1.00  0.00     0.171 HD
ATOM     15  O   UNL     1     -17.266  -0.069 -11.549  1.00  0.00    -0.248 OA
ATOM     16  N   UNL     1     -18.990   1.230 -10.639  1.00  0.00    -0.308 N 
ATOM     17  H   UNL     1     -19.218   1.790  -9.820  1.00  0.00     0.171 HD
BRANCH  16  18
ATOM     18  C   UNL     1     -19.990   1.154 -11.610  1.00  0.00     0.046 A 
ATOM     19  C   UNL     1     -20.455  -0.095 -12.027  1.00  0.00     0.077 A 
ATOM     20  C   UNL     1     -20.520   2.336 -12.158  1.00  0.00     0.030 A 
ATOM     21  C   UNL     1     -21.444  -0.122 -12.988  1.00  0.00     0.174 A 
ATOM     22  C   UNL     1     -21.522   2.282 -13.130  1.00  0.00     0.053 A 
ATOM     23  O   UNL     1     -22.017  -1.240 -13.515  1.00  0.00    -0.395 OA
ATOM     24  C   UNL     1     -21.963   1.036 -13.526  1.00  0.00     0.172 A 
ATOM     25  C   UNL     1     -22.944  -0.645 -14.434  1.00  0.00     0.586 C 
ATOM     26  O   UNL     1     -22.927   0.790 -14.455  1.00  0.00    -0.395 OA
ATOM     27  F   UNL     1     -24.196  -1.060 -14.116  1.00  0.00    -0.125 F 
ATOM     28  F   UNL     1     -22.668  -1.099 -15.682  1.00  0.00    -0.125 F 
ENDBRANCH  16  18
ENDBRANCH   2  12
TORSDOF 3
ENDMDL
MODEL 15
REMARK VINA RESULT:    -6.946      2.527      3.052
REMARK INTER + INTRA:          -8.668
REMARK INTER:                  -8.109
REMARK INTRA:                  -0.560
REMARK UNBOUND:                -0.504
REMARK SMILES O=C(Nc1ccc2c(c1)OC(F)(F)O2)Nc1ccc(Cl)c(C(F)(F)F)c1
REMARK SMILES IDX 20 1 16 2 21 3 26 4 17 5 19 6 18 7 22 8 23 9 24 10 25 11
REMARK SMILES IDX 15 12 2 13 1 15 3 16 4 18 9 19 5 20 8 21 6 22 10 23 7 24
REMARK SMILES IDX 11 25 14 26 12 27 13 28
REMARK H PARENT 15 14 3 17
REMARK Flexibility Score: inf
ROOT
ATOM      1  Cl  UNL     1     -27.232  -0.310 -15.291  1.00  0.00    -0.084 Cl
ATOM      2  C   UNL     1     -22.864  -0.297 -14.146  1.00  0.00     0.043 A 
ATOM      3  C   UNL     1     -24.882   0.923 -14.672  1.00  0.00     0.076 A 
ATOM      4  C   UNL     1     -23.533   0.915 -14.316  1.00  0.00     0.040 A 
ATOM      5  C   UNL     1     -23.545  -1.501 -14.328  1.00  0.00     0.028 A 
ATOM      6  C   UNL     1     -25.563  -0.280 -14.855  1.00  0.00     0.053 A 
ATOM      7  C   UNL     1     -24.894  -1.493 -14.684  1.00  0.00     0.023 A 
ENDROOT
BRANCH   3   8
ATOM      8  C   UNL     1     -25.563   2.243 -14.844  1.00  0.00     0.417 C 
ATOM      9  F   UNL     1     -24.695   3.292 -14.764  1.00  0.00    -0.166 F 
ATOM     10  F   UNL     1     -26.194   2.377 -16.046  1.00  0.00    -0.166 F 
ATOM     11  F   UNL     1     -26.523   2.486 -13.905  1.00  0.00    -0.166 F 
ENDBRANCH   3   8
BRANCH   2  12
ATOM     12  N   UNL     1     -21.496  -0.306 -13.787  1.00  0.00    -0.308 N 
ATOM     13  C   UNL     1     -20.935  -0.124 -12.512  1.00  0.00     0.323 C 
ATOM     14  H   UNL     1     -20.846  -0.463 -14.552  1.00  0.00     0.171 HD
ATOM     15  O   UNL     1     -21.568   0.077 -11.481  1.00  0.00    -0.248 OA
ATOM     16  N   UNL     1     -19.523  -0.206 -12.589  1.00  0.00    -0.308 N 
ATOM     17  H   UNL     1     -19.137  -0.376 -13.515  1.00  0.00     0.171 HD
BRANCH  16  18
ATOM     18  C   UNL     1     -18.586  -0.084 -11.562  1.00  0.00     0.046 A 
ATOM     19  C   UNL     1     -18.232  -1.208 -10.811  1.00  0.00     0.077 A 
ATOM     20  C   UNL     1     -18.008   1.169 -11.293  1.00  0.00     0.030 A 
ATOM     21  C   UNL     1     -17.303  -1.040  -9.807  1.00  0.00     0.174 A 
ATOM     22  C   UNL     1     -17.068   1.313 -10.269  1.00  0.00     0.053 A 
ATOM     23  O   UNL     1     -16.838  -2.015  -8.977  1.00  0.00    -0.395 OA
ATOM     24  C   UNL     1     -16.736   0.188  -9.542  1.00  0.00     0.172 A 
ATOM     25  C   UNL     1     -15.925  -1.254  -8.173  1.00  0.00     0.586 C 
ATOM     26  O   UNL     1     -15.844   0.137  -8.515  1.00  0.00    -0.395 OA
ATOM     27  F   UNL     1     -14.688  -1.801  -8.287  1.00  0.00    -0.125 F 
ATOM     28  F   UNL     1     -16.300  -1.360  -6.874  1.00  0.00    -0.125 F 
ENDBRANCH  16  18
ENDBRANCH   2  12
TORSDOF 3
ENDMDL
MODEL 16
REMARK VINA RESULT:    -6.802      2.313      3.158
REMARK INTER + INTRA:          -8.499
REMARK INTER:                  -8.041
REMARK INTRA:                  -0.458
REMARK UNBOUND:                -0.504
REMARK SMILES O=C(Nc1ccc2c(c1)OC(F)(F)O2)Nc1ccc(Cl)c(C(F)(F)F)c1
REMARK SMILES IDX 20 1 16 2 21 3 26 4 17 5 19 6 18 7 22 8 23 9 24 10 25 11
REMARK SMILES IDX 15 12 2 13 1 15 3 16 4 18 9 19 5 20 8 21 6 22 10 23 7 24
REMARK SMILES IDX 11 25 14 26 12 27 13 28
REMARK H PARENT 15 14 3 17
REMARK Flexibility Score: inf
ROOT
ATOM      1  Cl  UNL     1     -29.876  -1.040 -14.762  1.00  0.00    -0.084 Cl
ATOM      2  C   UNL     1     -25.453  -0.195 -14.414  1.00  0.00     0.043 A 
ATOM      3  C   UNL     1     -27.323  -1.682 -14.055  1.00  0.00     0.076 A 
ATOM      4  C   UNL     1     -25.959  -1.411 -13.954  1.00  0.00     0.040 A 
ATOM      5  C   UNL     1     -26.312   0.749 -14.976  1.00  0.00     0.028 A 
ATOM      6  C   UNL     1     -28.182  -0.738 -14.617  1.00  0.00     0.053 A 
ATOM      7  C   UNL     1     -27.678   0.478 -15.078  1.00  0.00     0.023 A 
ENDROOT
BRANCH   3   8
ATOM      8  C   UNL     1     -27.825  -2.998 -13.552  1.00  0.00     0.417 C 
ATOM      9  F   UNL     1     -26.814  -3.827 -13.162  1.00  0.00    -0.166 F 
ATOM     10  F   UNL     1     -28.649  -2.888 -12.471  1.00  0.00    -0.166 F 
ATOM     11  F   UNL     1     -28.540  -3.697 -14.479  1.00  0.00    -0.166 F 
ENDBRANCH   3   8
BRANCH   2  12
ATOM     12  N   UNL     1     -24.070   0.081 -14.310  1.00  0.00    -0.308 N 
ATOM     13  C   UNL     1     -23.328   0.358 -13.150  1.00  0.00     0.323 C 
ATOM     14  H   UNL     1     -23.558   0.076 -15.187  1.00  0.00     0.171 HD
ATOM     15  O   UNL     1     -23.784   0.405 -12.011  1.00  0.00    -0.248 OA
ATOM     16  N   UNL     1     -21.971   0.578 -13.485  1.00  0.00    -0.308 N 
ATOM     17  H   UNL     1     -21.739   0.507 -14.473  1.00  0.00     0.171 HD
BRANCH  16  18
ATOM     18  C   UNL     1     -20.902   0.881 -12.639  1.00  0.00     0.046 A 
ATOM     19  C   UNL     1     -19.850  -0.027 -12.502  1.00  0.00     0.077 A 
ATOM     20  C   UNL     1     -20.897   2.097 -11.933  1.00  0.00     0.030 A 
ATOM     21  C   UNL     1     -18.816   0.314 -11.656  1.00  0.00     0.174 A 
ATOM     22  C   UNL     1     -19.836   2.419 -11.082  1.00  0.00     0.053 A 
ATOM     23  O   UNL     1     -17.712  -0.441 -11.399  1.00  0.00    -0.395 OA
ATOM     24  C   UNL     1     -18.809   1.506 -10.963  1.00  0.00     0.172 A 
ATOM     25  C   UNL     1     -17.026   0.414 -10.472  1.00  0.00     0.586 C 
ATOM     26  O   UNL     1     -17.701   1.648 -10.186  1.00  0.00    -0.395 OA
ATOM     27  F   UNL     1     -15.797   0.698 -10.973  1.00  0.00    -0.125 F 
ATOM     28  F   UNL     1     -16.847  -0.261  -9.310  1.00  0.00    -0.125 F 
ENDBRANCH  16  18
ENDBRANCH   2  12
TORSDOF 3
ENDMDL
MODEL 17
REMARK VINA RESULT:    -6.782      2.047      2.335
REMARK INTER + INTRA:          -8.475
REMARK INTER:                  -7.912
REMARK INTRA:                  -0.563
REMARK UNBOUND:                -0.504
REMARK SMILES O=C(Nc1ccc2c(c1)OC(F)(F)O2)Nc1ccc(Cl)c(C(F)(F)F)c1
REMARK SMILES IDX 20 1 16 2 21 3 26 4 17 5 19 6 18 7 22 8 23 9 24 10 25 11
REMARK SMILES IDX 15 12 2 13 1 15 3 16 4 18 9 19 5 20 8 21 6 22 10 23 7 24
REMARK SMILES IDX 11 25 14 26 12 27 13 28
REMARK H PARENT 15 14 3 17
REMARK Flexibility Score: inf
ROOT
ATOM      1  Cl  UNL     1     -26.132  -3.041 -13.763  1.00  0.00    -0.084 Cl
ATOM      2  C   UNL     1     -22.553  -0.503 -12.694  1.00  0.00     0.043 A 
ATOM      3  C   UNL     1     -24.735  -1.371 -12.124  1.00  0.00     0.076 A 
ATOM      4  C   UNL     1     -23.623  -0.592 -11.804  1.00  0.00     0.040 A 
ATOM      5  C   UNL     1     -22.594  -1.195 -13.905  1.00  0.00     0.028 A 
ATOM      6  C   UNL     1     -24.776  -2.064 -13.334  1.00  0.00     0.053 A 
ATOM      7  C   UNL     1     -23.706  -1.975 -14.225  1.00  0.00     0.023 A 
ENDROOT
BRANCH   3   8
ATOM      8  C   UNL     1     -25.859  -1.442 -11.141  1.00  0.00     0.417 C 
ATOM      9  F   UNL     1     -26.087  -2.712 -10.700  1.00  0.00    -0.166 F 
ATOM     10  F   UNL     1     -25.649  -0.694 -10.020  1.00  0.00    -0.166 F 
ATOM     11  F   UNL     1     -27.050  -1.007 -11.646  1.00  0.00    -0.166 F 
ENDBRANCH   3   8
BRANCH   2  12
ATOM     12  N   UNL     1     -21.427   0.290 -12.371  1.00  0.00    -0.308 N 
ATOM     13  C   UNL     1     -20.378  -0.018 -11.490  1.00  0.00     0.323 C 
ATOM     14  H   UNL     1     -21.380   1.191 -12.839  1.00  0.00     0.171 HD
ATOM     15  O   UNL     1     -20.275  -1.057 -10.844  1.00  0.00    -0.248 OA
ATOM     16  N   UNL     1     -19.449   1.050 -11.452  1.00  0.00    -0.308 N 
ATOM     17  H   UNL     1     -19.666   1.849 -12.042  1.00  0.00     0.171 HD
BRANCH  16  18
ATOM     18  C   UNL     1     -18.270   1.154 -10.712  1.00  0.00     0.046 A 
ATOM     19  C   UNL     1     -17.054   0.785 -11.292  1.00  0.00     0.077 A 
ATOM     20  C   UNL     1     -18.319   1.628  -9.389  1.00  0.00     0.030 A 
ATOM     21  C   UNL     1     -15.916   0.905 -10.523  1.00  0.00     0.174 A 
ATOM     22  C   UNL     1     -17.150   1.740  -8.631  1.00  0.00     0.053 A 
ATOM     23  O   UNL     1     -14.649   0.596 -10.917  1.00  0.00    -0.395 OA
ATOM     24  C   UNL     1     -15.962   1.369  -9.227  1.00  0.00     0.172 A 
ATOM     25  C   UNL     1     -13.922   0.919  -9.724  1.00  0.00     0.586 C 
ATOM     26  O   UNL     1     -14.732   1.411  -8.646  1.00  0.00    -0.395 OA
ATOM     27  F   UNL     1     -12.987   1.855 -10.026  1.00  0.00    -0.125 F 
ATOM     28  F   UNL     1     -13.267  -0.190  -9.301  1.00  0.00    -0.125 F 
ENDBRANCH  16  18
ENDBRANCH   2  12
TORSDOF 3
ENDMDL
MODEL 18
REMARK VINA RESULT:    -6.745      1.748      2.167
REMARK INTER + INTRA:          -8.431
REMARK INTER:                  -7.953
REMARK INTRA:                  -0.478
REMARK UNBOUND:                -0.504
REMARK SMILES O=C(Nc1ccc2c(c1)OC(F)(F)O2)Nc1ccc(Cl)c(C(F)(F)F)c1
REMARK SMILES IDX 20 1 16 2 21 3 26 4 17 5 19 6 18 7 22 8 23 9 24 10 25 11
REMARK SMILES IDX 15 12 2 13 1 15 3 16 4 18 9 19 5 20 8 21 6 22 10 23 7 24
REMARK SMILES IDX 11 25 14 26 12 27 13 28
REMARK H PARENT 15 14 3 17
REMARK Flexibility Score: inf
ROOT
ATOM      1  Cl  UNL     1     -27.055  -0.569 -14.790  1.00  0.00    -0.084 Cl
ATOM      2  C   UNL     1     -22.653  -0.439 -13.791  1.00  0.00     0.043 A 
ATOM      3  C   UNL     1     -24.793  -1.549 -13.628  1.00  0.00     0.076 A 
ATOM      4  C   UNL     1     -23.432  -1.500 -13.327  1.00  0.00     0.040 A 
ATOM      5  C   UNL     1     -23.235   0.570 -14.558  1.00  0.00     0.028 A 
ATOM      6  C   UNL     1     -25.375  -0.540 -14.395  1.00  0.00     0.053 A 
ATOM      7  C   UNL     1     -24.596   0.521 -14.859  1.00  0.00     0.023 A 
ENDROOT
BRANCH   3   8
ATOM      8  C   UNL     1     -25.593  -2.703 -13.113  1.00  0.00     0.417 C 
ATOM      9  F   UNL     1     -26.550  -2.317 -12.221  1.00  0.00    -0.166 F 
ATOM     10  F   UNL     1     -26.254  -3.385 -14.091  1.00  0.00    -0.166 F 
ATOM     11  F   UNL     1     -24.841  -3.639 -12.467  1.00  0.00    -0.166 F 
ENDBRANCH   3   8
BRANCH   2  12
ATOM     12  N   UNL     1     -21.273  -0.388 -13.485  1.00  0.00    -0.308 N 
ATOM     13  C   UNL     1     -20.671  -0.302 -12.219  1.00  0.00     0.323 C 
ATOM     14  H   UNL     1     -20.647  -0.418 -14.286  1.00  0.00     0.171 HD
ATOM     15  O   UNL     1     -21.271  -0.256 -11.150  1.00  0.00    -0.248 OA
ATOM     16  N   UNL     1     -19.262  -0.274 -12.354  1.00  0.00    -0.308 N 
ATOM     17  H   UNL     1     -18.906  -0.319 -13.306  1.00  0.00     0.171 HD
BRANCH  16  18
ATOM     18  C   UNL     1     -18.292  -0.194 -11.354  1.00  0.00     0.046 A 
ATOM     19  C   UNL     1     -17.902  -1.351 -10.674  1.00  0.00     0.077 A 
ATOM     20  C   UNL     1     -17.717   1.050 -11.040  1.00  0.00     0.030 A 
ATOM     21  C   UNL     1     -16.941  -1.224  -9.694  1.00  0.00     0.174 A 
ATOM     22  C   UNL     1     -16.744   1.152 -10.043  1.00  0.00     0.053 A 
ATOM     23  O   UNL     1     -16.439  -2.234  -8.931  1.00  0.00    -0.395 OA
ATOM     24  C   UNL     1     -16.376  -0.005  -9.386  1.00  0.00     0.172 A 
ATOM     25  C   UNL     1     -15.507  -1.505  -8.120  1.00  0.00     0.586 C 
ATOM     26  O   UNL     1     -15.450  -0.098  -8.393  1.00  0.00    -0.395 OA
ATOM     27  F   UNL     1     -14.269  -2.032  -8.303  1.00  0.00    -0.125 F 
ATOM     28  F   UNL     1     -15.836  -1.681  -6.816  1.00  0.00    -0.125 F 
ENDBRANCH  16  18
ENDBRANCH   2  12
TORSDOF 3
ENDMDL
MODEL 19
REMARK VINA RESULT:    -6.686      2.034      2.519
REMARK INTER + INTRA:          -8.362
REMARK INTER:                  -8.064
REMARK INTRA:                  -0.298
REMARK UNBOUND:                -0.504
REMARK SMILES O=C(Nc1ccc2c(c1)OC(F)(F)O2)Nc1ccc(Cl)c(C(F)(F)F)c1
REMARK SMILES IDX 20 1 16 2 21 3 26 4 17 5 19 6 18 7 22 8 23 9 24 10 25 11
REMARK SMILES IDX 15 12 2 13 1 15 3 16 4 18 9 19 5 20 8 21 6 22 10 23 7 24
REMARK SMILES IDX 11 25 14 26 12 27 13 28
REMARK H PARENT 15 14 3 17
REMARK Flexibility Score: inf
ROOT
ATOM      1  Cl  UNL     1     -28.523   2.643 -15.403  1.00  0.00    -0.084 Cl
ATOM      2  C   UNL     1     -24.142   2.529 -14.313  1.00  0.00     0.043 A 
ATOM      3  C   UNL     1     -26.153   1.366 -14.978  1.00  0.00     0.076 A 
ATOM      4  C   UNL     1     -24.799   1.344 -14.642  1.00  0.00     0.040 A 
ATOM      5  C   UNL     1     -24.838   3.738 -14.324  1.00  0.00     0.028 A 
ATOM      6  C   UNL     1     -26.848   2.575 -14.989  1.00  0.00     0.053 A 
ATOM      7  C   UNL     1     -26.192   3.762 -14.660  1.00  0.00     0.023 A 
ENDROOT
BRANCH   3   8
ATOM      8  C   UNL     1     -26.820   0.074 -15.325  1.00  0.00     0.417 C 
ATOM      9  F   UNL     1     -27.378   0.093 -16.570  1.00  0.00    -0.166 F 
ATOM     10  F   UNL     1     -25.972  -0.994 -15.317  1.00  0.00    -0.166 F 
ATOM     11  F   UNL     1     -27.831  -0.261 -14.473  1.00  0.00    -0.166 F 
ENDBRANCH   3   8
BRANCH   2  12
ATOM     12  N   UNL     1     -22.770   2.506 -13.970  1.00  0.00    -0.308 N 
ATOM     13  C   UNL     1     -22.193   2.171 -12.734  1.00  0.00     0.323 C 
ATOM     14  H   UNL     1     -22.130   2.765 -14.716  1.00  0.00     0.171 HD
ATOM     15  O   UNL     1     -22.813   1.836 -11.730  1.00  0.00    -0.248 OA
ATOM     16  N   UNL     1     -20.784   2.276 -12.813  1.00  0.00    -0.308 N 
ATOM     17  H   UNL     1     -20.409   2.567 -13.714  1.00  0.00     0.171 HD
BRANCH  16  18
ATOM     18  C   UNL     1     -19.834   2.034 -11.819  1.00  0.00     0.046 A 
ATOM     19  C   UNL     1     -18.675   1.318 -12.129  1.00  0.00     0.077 A 
ATOM     20  C   UNL     1     -20.054   2.513 -10.516  1.00  0.00     0.030 A 
ATOM     21  C   UNL     1     -17.766   1.103 -11.116  1.00  0.00     0.174 A 
ATOM     22  C   UNL     1     -19.116   2.282  -9.507  1.00  0.00     0.053 A 
ATOM     23  O   UNL     1     -16.587   0.430 -11.229  1.00  0.00    -0.395 OA
ATOM     24  C   UNL     1     -17.980   1.572  -9.838  1.00  0.00     0.172 A 
ATOM     25  C   UNL     1     -16.100   0.535  -9.884  1.00  0.00     0.586 C 
ATOM     26  O   UNL     1     -16.963   1.254  -8.991  1.00  0.00    -0.395 OA
ATOM     27  F   UNL     1     -14.891   1.151  -9.908  1.00  0.00    -0.125 F 
ATOM     28  F   UNL     1     -15.912  -0.715  -9.392  1.00  0.00    -0.125 F 
ENDBRANCH  16  18
ENDBRANCH   2  12
TORSDOF 3
ENDMDL
MODEL 20
REMARK VINA RESULT:    -6.617      7.124      7.801
REMARK INTER + INTRA:          -8.281
REMARK INTER:                  -7.778
REMARK INTRA:                  -0.504
REMARK UNBOUND:                -0.504
REMARK SMILES O=C(Nc1ccc2c(c1)OC(F)(F)O2)Nc1ccc(Cl)c(C(F)(F)F)c1
REMARK SMILES IDX 20 1 16 2 21 3 26 4 17 5 19 6 18 7 22 8 23 9 24 10 25 11
REMARK SMILES IDX 15 12 2 13 1 15 3 16 4 18 9 19 5 20 8 21 6 22 10 23 7 24
REMARK SMILES IDX 11 25 14 26 12 27 13 28
REMARK H PARENT 15 14 3 17
REMARK Flexibility Score: inf
ROOT
ATOM      1  Cl  UNL     1     -22.941  -0.097 -11.706  1.00  0.00    -0.084 Cl
ATOM      2  C   UNL     1     -21.471   4.072 -12.630  1.00  0.00     0.043 A 
ATOM      3  C   UNL     1     -20.989   1.759 -12.122  1.00  0.00     0.076 A 
ATOM      4  C   UNL     1     -20.547   3.051 -12.410  1.00  0.00     0.040 A 
ATOM      5  C   UNL     1     -22.838   3.801 -12.565  1.00  0.00     0.028 A 
ATOM      6  C   UNL     1     -22.356   1.489 -12.056  1.00  0.00     0.053 A 
ATOM      7  C   UNL     1     -23.281   2.510 -12.277  1.00  0.00     0.023 A 
ENDROOT
BRANCH   3   8
ATOM      8  C   UNL     1     -19.967   0.693 -11.893  1.00  0.00     0.417 C 
ATOM      9  F   UNL     1     -20.037  -0.304 -12.822  1.00  0.00    -0.166 F 
ATOM     10  F   UNL     1     -18.683   1.151 -11.941  1.00  0.00    -0.166 F 
ATOM     11  F   UNL     1     -20.085   0.078 -10.682  1.00  0.00    -0.166 F 
ENDBRANCH   3   8
BRANCH   2  12
ATOM     12  N   UNL     1     -21.022   5.382 -12.920  1.00  0.00    -0.308 N 
ATOM     13  C   UNL     1     -20.527   6.344 -12.025  1.00  0.00     0.323 C 
ATOM     14  H   UNL     1     -21.067   5.651 -13.900  1.00  0.00     0.171 HD
ATOM     15  O   UNL     1     -20.405   6.190 -10.814  1.00  0.00    -0.248 OA
ATOM     16  N   UNL     1     -20.188   7.527 -12.726  1.00  0.00    -0.308 N 
ATOM     17  H   UNL     1     -20.345   7.509 -13.731  1.00  0.00     0.171 HD
BRANCH  16  18
ATOM     18  C   UNL     1     -19.665   8.719 -12.222  1.00  0.00     0.046 A 
ATOM     19  C   UNL     1     -18.364   9.100 -12.558  1.00  0.00     0.077 A 
ATOM     20  C   UNL     1     -20.454   9.524 -11.381  1.00  0.00     0.030 A 
ATOM     21  C   UNL     1     -17.890  10.285 -12.037  1.00  0.00     0.174 A 
ATOM     22  C   UNL     1     -19.949  10.721 -10.866  1.00  0.00     0.053 A 
ATOM     23  O   UNL     1     -16.654  10.815 -12.253  1.00  0.00    -0.395 OA
ATOM     24  C   UNL     1     -18.662  11.075 -11.212  1.00  0.00     0.172 A 
ATOM     25  C   UNL     1     -16.748  12.015 -11.471  1.00  0.00     0.586 C 
ATOM     26  O   UNL     1     -18.008  12.199 -10.809  1.00  0.00    -0.395 OA
ATOM     27  F   UNL     1     -16.526  13.079 -12.284  1.00  0.00    -0.125 F 
ATOM     28  F   UNL     1     -15.765  12.002 -10.538  1.00  0.00    -0.125 F 
ENDBRANCH  16  18
ENDBRANCH   2  12
TORSDOF 3
ENDMDL
