REMARK SMILES O=C(Nc1ccc2c(c1)OC(F)(F)O2)Nc1ccc(Cl)c(C(F)(F)F)c1
REMARK SMILES IDX 20 1 16 2 21 3 26 4 17 5 19 6 18 7 22 8 23 9 24 10 25 11
REMARK SMILES IDX 15 12 2 13 1 15 3 16 4 18 9 19 5 20 8 21 6 22 10 23 7 24
REMARK SMILES IDX 11 25 14 26 12 27 13 28
REMARK H PARENT 15 14 3 17
REMARK Flexibility Score: inf
ROOT
ATOM      1  Cl  UNL     1      92.417  -5.270   5.943  1.00  0.00    -0.084 Cl
ATOM      2  C   UNL     1      94.012  -4.785  10.140  1.00  0.00     0.043 A 
ATOM      3  C   UNL     1      92.180  -5.321   8.657  1.00  0.00     0.076 A 
ATOM      4  C   UNL     1      92.684  -5.169   9.949  1.00  0.00     0.040 A 
ATOM      5  C   UNL     1      94.836  -4.554   9.038  1.00  0.00     0.028 A 
ATOM      6  C   UNL     1      93.004  -5.089   7.556  1.00  0.00     0.053 A 
ATOM      7  C   UNL     1      94.332  -4.706   7.746  1.00  0.00     0.023 A 
ENDROOT
BRANCH   3   8
ATOM      8  C   UNL     1      90.754  -5.734   8.495  1.00  0.00     0.417 C 
ATOM      9  F   UNL     1      90.126  -5.924   9.691  1.00  0.00    -0.166 F 
ATOM     10  F   UNL     1      89.995  -4.821   7.822  1.00  0.00    -0.166 F 
ATOM     11  F   UNL     1      90.600  -6.903   7.809  1.00  0.00    -0.166 F 
ENDBRANCH   3   8
BRANCH   2  12
ATOM     12  N   UNL     1      94.522  -4.630  11.450  1.00  0.00    -0.308 N 
ATOM     13  C   UNL     1      95.326  -5.524  12.175  1.00  0.00     0.323 C 
ATOM     14  H   UNL     1      94.271  -3.761  11.915  1.00  0.00     0.171 HD
ATOM     15  O   UNL     1      95.721  -6.612  11.770  1.00  0.00    -0.248 OA
ATOM     16  N   UNL     1      95.617  -4.984  13.452  1.00  0.00    -0.308 N 
ATOM     17  H   UNL     1      95.220  -4.069  13.650  1.00  0.00     0.171 HD
BRANCH  16  18
ATOM     18  C   UNL     1      96.379  -5.542  14.479  1.00  0.00     0.046 A 
ATOM     19  C   UNL     1      97.551  -4.907  14.898  1.00  0.00     0.077 A 
ATOM     20  C   UNL     1      95.960  -6.741  15.085  1.00  0.00     0.030 A 
ATOM     21  C   UNL     1      98.271  -5.496  15.916  1.00  0.00     0.174 A 
ATOM     22  C   UNL     1      96.707  -7.317  16.115  1.00  0.00     0.053 A 
ATOM     23  O   UNL     1      99.430  -5.022  16.452  1.00  0.00    -0.395 OA
ATOM     24  C   UNL     1      97.859  -6.670  16.510  1.00  0.00     0.172 A 
ATOM     25  C   UNL     1      99.689  -6.033  17.437  1.00  0.00     0.586 C 
ATOM     26  O   UNL     1      98.710  -7.080  17.491  1.00  0.00    -0.395 OA
ATOM     27  F   UNL     1      99.758  -5.441  18.656  1.00  0.00    -0.125 F 
ATOM     28  F   UNL     1     100.901  -6.586  17.182  1.00  0.00    -0.125 F 
ENDBRANCH  16  18
ENDBRANCH   2  12
TORSDOF 3
