MODEL 1
REMARK VINA RESULT:    -7.546      0.000      0.000
REMARK INTER + INTRA:          -9.270
REMARK INTER:                  -9.188
REMARK INTRA:                  -0.082
REMARK UNBOUND:                -0.401
REMARK SMILES O=C(Nc1ccc2c(c1)OC(F)(F)O2)Nc1ccc(Cl)c(C(F)(F)F)c1
REMARK SMILES IDX 20 1 16 2 21 3 26 4 17 5 19 6 18 7 22 8 23 9 24 10 25 11
REMARK SMILES IDX 15 12 2 13 1 15 3 16 4 18 9 19 5 20 8 21 6 22 10 23 7 24
REMARK SMILES IDX 11 25 14 26 12 27 13 28
REMARK H PARENT 15 14 3 17
REMARK Flexibility Score: inf
ROOT
ATOM      1  Cl  UNL     1      90.954  -0.313  15.392  1.00  0.00    -0.084 Cl
ATOM      2  C   UNL     1      87.101   1.204  13.591  1.00  0.00     0.043 A 
ATOM      3  C   UNL     1      88.488  -0.650  14.283  1.00  0.00     0.076 A 
ATOM      4  C   UNL     1      87.301  -0.170  13.729  1.00  0.00     0.040 A 
ATOM      5  C   UNL     1      88.088   2.097  14.008  1.00  0.00     0.028 A 
ATOM      6  C   UNL     1      89.474   0.243  14.699  1.00  0.00     0.053 A 
ATOM      7  C   UNL     1      89.275   1.617  14.562  1.00  0.00     0.023 A 
ENDROOT
BRANCH   3   8
ATOM      8  C   UNL     1      88.663  -2.128  14.415  1.00  0.00     0.417 C 
ATOM      9  F   UNL     1      87.774  -2.829  13.654  1.00  0.00    -0.166 F 
ATOM     10  F   UNL     1      89.898  -2.566  14.036  1.00  0.00    -0.166 F 
ATOM     11  F   UNL     1      88.496  -2.584  15.690  1.00  0.00    -0.166 F 
ENDBRANCH   3   8
BRANCH   2  12
ATOM     12  N   UNL     1      85.897   1.690  13.028  1.00  0.00    -0.308 N 
ATOM     13  C   UNL     1      85.078   1.070  12.072  1.00  0.00     0.323 C 
ATOM     14  H   UNL     1      85.597   2.602  13.365  1.00  0.00     0.171 HD
ATOM     15  O   UNL     1      85.288  -0.025  11.561  1.00  0.00    -0.248 OA
ATOM     16  N   UNL     1      83.966   1.896  11.780  1.00  0.00    -0.308 N 
ATOM     17  H   UNL     1      83.923   2.780  12.282  1.00  0.00     0.171 HD
BRANCH  16  18
ATOM     18  C   UNL     1      82.916   1.661  10.891  1.00  0.00     0.046 A 
ATOM     19  C   UNL     1      81.704   1.154  11.368  1.00  0.00     0.077 A 
ATOM     20  C   UNL     1      83.088   1.935   9.522  1.00  0.00     0.030 A 
ATOM     21  C   UNL     1      80.696   0.937  10.452  1.00  0.00     0.174 A 
ATOM     22  C   UNL     1      82.050   1.707   8.615  1.00  0.00     0.053 A 
ATOM     23  O   UNL     1      79.455   0.452  10.732  1.00  0.00    -0.395 OA
ATOM     24  C   UNL     1      80.864   1.207   9.111  1.00  0.00     0.172 A 
ATOM     25  C   UNL     1      78.878   0.449   9.418  1.00  0.00     0.586 C 
ATOM     26  O   UNL     1      79.750   0.923   8.382  1.00  0.00    -0.395 OA
ATOM     27  F   UNL     1      77.763   1.222   9.433  1.00  0.00    -0.125 F 
ATOM     28  F   UNL     1      78.494  -0.816   9.116  1.00  0.00    -0.125 F 
ENDBRANCH  16  18
ENDBRANCH   2  12
TORSDOF 3
ENDMDL
MODEL 2
REMARK VINA RESULT:    -7.410      1.923      2.438
REMARK INTER + INTRA:          -9.111
REMARK INTER:                  -8.708
REMARK INTRA:                  -0.402
REMARK UNBOUND:                -0.401
REMARK SMILES O=C(Nc1ccc2c(c1)OC(F)(F)O2)Nc1ccc(Cl)c(C(F)(F)F)c1
REMARK SMILES IDX 20 1 16 2 21 3 26 4 17 5 19 6 18 7 22 8 23 9 24 10 25 11
REMARK SMILES IDX 15 12 2 13 1 15 3 16 4 18 9 19 5 20 8 21 6 22 10 23 7 24
REMARK SMILES IDX 11 25 14 26 12 27 13 28
REMARK H PARENT 15 14 3 17
REMARK Flexibility Score: inf
ROOT
ATOM      1  Cl  UNL     1      89.621  -3.603  12.966  1.00  0.00    -0.084 Cl
ATOM      2  C   UNL     1      86.331  -0.730  11.820  1.00  0.00     0.043 A 
ATOM      3  C   UNL     1      87.764  -1.686  13.515  1.00  0.00     0.076 A 
ATOM      4  C   UNL     1      86.749  -0.802  13.149  1.00  0.00     0.040 A 
ATOM      5  C   UNL     1      86.929  -1.542  10.857  1.00  0.00     0.028 A 
ATOM      6  C   UNL     1      88.361  -2.498  12.552  1.00  0.00     0.053 A 
ATOM      7  C   UNL     1      87.944  -2.427  11.222  1.00  0.00     0.023 A 
ENDROOT
BRANCH   3   8
ATOM      8  C   UNL     1      88.182  -1.732  14.948  1.00  0.00     0.417 C 
ATOM      9  F   UNL     1      89.433  -1.224  15.144  1.00  0.00    -0.166 F 
ATOM     10  F   UNL     1      87.363  -1.023  15.778  1.00  0.00    -0.166 F 
ATOM     11  F   UNL     1      88.212  -2.994  15.466  1.00  0.00    -0.166 F 
ENDBRANCH   3   8
BRANCH   2  12
ATOM     12  N   UNL     1      85.301   0.166  11.449  1.00  0.00    -0.308 N 
ATOM     13  C   UNL     1      84.081  -0.131  10.822  1.00  0.00     0.323 C 
ATOM     14  H   UNL     1      85.475   1.144  11.670  1.00  0.00     0.171 HD
ATOM     15  O   UNL     1      83.711  -1.252  10.486  1.00  0.00    -0.248 OA
ATOM     16  N   UNL     1      83.335   1.057  10.628  1.00  0.00    -0.308 N 
ATOM     17  H   UNL     1      83.770   1.915  10.958  1.00  0.00     0.171 HD
BRANCH  16  18
ATOM     18  C   UNL     1      82.077   1.208  10.044  1.00  0.00     0.046 A 
ATOM     19  C   UNL     1      80.928   0.932  10.790  1.00  0.00     0.077 A 
ATOM     20  C   UNL     1      81.976   1.638   8.709  1.00  0.00     0.030 A 
ATOM     21  C   UNL     1      79.706   1.097  10.170  1.00  0.00     0.174 A 
ATOM     22  C   UNL     1      80.727   1.798   8.104  1.00  0.00     0.053 A 
ATOM     23  O   UNL     1      78.488   0.877  10.737  1.00  0.00    -0.395 OA
ATOM     24  C   UNL     1      79.609   1.519   8.862  1.00  0.00     0.172 A 
ATOM     25  C   UNL     1      77.630   1.207   9.635  1.00  0.00     0.586 C 
ATOM     26  O   UNL     1      78.316   1.616   8.444  1.00  0.00    -0.395 OA
ATOM     27  F   UNL     1      76.797   2.207  10.020  1.00  0.00    -0.125 F 
ATOM     28  F   UNL     1      76.863   0.126   9.344  1.00  0.00    -0.125 F 
ENDBRANCH  16  18
ENDBRANCH   2  12
TORSDOF 3
ENDMDL
MODEL 3
REMARK VINA RESULT:    -7.316      6.435      9.626
REMARK INTER + INTRA:          -9.000
REMARK INTER:                  -8.473
REMARK INTRA:                  -0.527
REMARK UNBOUND:                -0.401
REMARK SMILES O=C(Nc1ccc2c(c1)OC(F)(F)O2)Nc1ccc(Cl)c(C(F)(F)F)c1
REMARK SMILES IDX 20 1 16 2 21 3 26 4 17 5 19 6 18 7 22 8 23 9 24 10 25 11
REMARK SMILES IDX 15 12 2 13 1 15 3 16 4 18 9 19 5 20 8 21 6 22 10 23 7 24
REMARK SMILES IDX 11 25 14 26 12 27 13 28
REMARK H PARENT 15 14 3 17
REMARK Flexibility Score: inf
ROOT
ATOM      1  Cl  UNL     1      83.564  12.034  11.410  1.00  0.00    -0.084 Cl
ATOM      2  C   UNL     1      84.791   7.719  10.891  1.00  0.00     0.043 A 
ATOM      3  C   UNL     1      83.304   9.359  11.860  1.00  0.00     0.076 A 
ATOM      4  C   UNL     1      83.692   8.029  11.691  1.00  0.00     0.040 A 
ATOM      5  C   UNL     1      85.503   8.739  10.258  1.00  0.00     0.028 A 
ATOM      6  C   UNL     1      84.016  10.378  11.227  1.00  0.00     0.053 A 
ATOM      7  C   UNL     1      85.115  10.068  10.426  1.00  0.00     0.023 A 
ENDROOT
BRANCH   3   8
ATOM      8  C   UNL     1      82.121   9.649  12.724  1.00  0.00     0.417 C 
ATOM      9  F   UNL     1      82.461  10.294  13.877  1.00  0.00    -0.166 F 
ATOM     10  F   UNL     1      81.187  10.440  12.121  1.00  0.00    -0.166 F 
ATOM     11  F   UNL     1      81.444   8.530  13.114  1.00  0.00    -0.166 F 
ENDBRANCH   3   8
BRANCH   2  12
ATOM     12  N   UNL     1      85.185   6.371  10.721  1.00  0.00    -0.308 N 
ATOM     13  C   UNL     1      85.834   5.538  11.646  1.00  0.00     0.323 C 
ATOM     14  H   UNL     1      84.965   5.964   9.816  1.00  0.00     0.171 HD
ATOM     15  O   UNL     1      86.172   5.863  12.780  1.00  0.00    -0.248 OA
ATOM     16  N   UNL     1      86.047   4.258  11.078  1.00  0.00    -0.308 N 
ATOM     17  H   UNL     1      85.713   4.133  10.125  1.00  0.00     0.171 HD
BRANCH  16  18
ATOM     18  C   UNL     1      86.655   3.141  11.651  1.00  0.00     0.046 A 
ATOM     19  C   UNL     1      85.892   2.248  12.409  1.00  0.00     0.077 A 
ATOM     20  C   UNL     1      88.032   2.924  11.462  1.00  0.00     0.030 A 
ATOM     21  C   UNL     1      86.537   1.158  12.956  1.00  0.00     0.174 A 
ATOM     22  C   UNL     1      88.661   1.811  12.026  1.00  0.00     0.053 A 
ATOM     23  O   UNL     1      85.959   0.189  13.717  1.00  0.00    -0.395 OA
ATOM     24  C   UNL     1      87.886   0.946  12.769  1.00  0.00     0.172 A 
ATOM     25  C   UNL     1      87.099  -0.642  13.982  1.00  0.00     0.586 C 
ATOM     26  O   UNL     1      88.323  -0.184  13.392  1.00  0.00    -0.395 OA
ATOM     27  F   UNL     1      86.838  -1.892  13.523  1.00  0.00    -0.125 F 
ATOM     28  F   UNL     1      87.270  -0.728  15.325  1.00  0.00    -0.125 F 
ENDBRANCH  16  18
ENDBRANCH   2  12
TORSDOF 3
ENDMDL
MODEL 4
REMARK VINA RESULT:    -7.305      3.852      9.762
REMARK INTER + INTRA:          -8.987
REMARK INTER:                  -8.610
REMARK INTRA:                  -0.377
REMARK UNBOUND:                -0.401
REMARK SMILES O=C(Nc1ccc2c(c1)OC(F)(F)O2)Nc1ccc(Cl)c(C(F)(F)F)c1
REMARK SMILES IDX 20 1 16 2 21 3 26 4 17 5 19 6 18 7 22 8 23 9 24 10 25 11
REMARK SMILES IDX 15 12 2 13 1 15 3 16 4 18 9 19 5 20 8 21 6 22 10 23 7 24
REMARK SMILES IDX 11 25 14 26 12 27 13 28
REMARK H PARENT 15 14 3 17
REMARK Flexibility Score: inf
ROOT
ATOM      1  Cl  UNL     1      76.776   1.410   8.716  1.00  0.00    -0.084 Cl
ATOM      2  C   UNL     1      81.094   1.270  10.030  1.00  0.00     0.043 A 
ATOM      3  C   UNL     1      79.453   1.706   8.310  1.00  0.00     0.076 A 
ATOM      4  C   UNL     1      80.784   1.660   8.727  1.00  0.00     0.040 A 
ATOM      5  C   UNL     1      80.073   0.927  10.916  1.00  0.00     0.028 A 
ATOM      6  C   UNL     1      78.433   1.362   9.196  1.00  0.00     0.053 A 
ATOM      7  C   UNL     1      78.742   0.973  10.499  1.00  0.00     0.023 A 
ENDROOT
BRANCH   3   8
ATOM      8  C   UNL     1      79.164   2.130   6.907  1.00  0.00     0.417 C 
ATOM      9  F   UNL     1      80.292   2.467   6.219  1.00  0.00    -0.166 F 
ATOM     10  F   UNL     1      78.553   1.164   6.161  1.00  0.00    -0.166 F 
ATOM     11  F   UNL     1      78.344   3.217   6.825  1.00  0.00    -0.166 F 
ENDBRANCH   3   8
BRANCH   2  12
ATOM     12  N   UNL     1      82.443   1.223  10.453  1.00  0.00    -0.308 N 
ATOM     13  C   UNL     1      83.120   0.154  11.061  1.00  0.00     0.323 C 
ATOM     14  H   UNL     1      82.980   2.071  10.291  1.00  0.00     0.171 HD
ATOM     15  O   UNL     1      82.629  -0.937  11.329  1.00  0.00    -0.248 OA
ATOM     16  N   UNL     1      84.463   0.521  11.324  1.00  0.00    -0.308 N 
ATOM     17  H   UNL     1      84.730   1.462  11.046  1.00  0.00     0.171 HD
BRANCH  16  18
ATOM     18  C   UNL     1      85.473  -0.240  11.915  1.00  0.00     0.046 A 
ATOM     19  C   UNL     1      85.853   0.019  13.235  1.00  0.00     0.077 A 
ATOM     20  C   UNL     1      86.099  -1.260  11.176  1.00  0.00     0.030 A 
ATOM     21  C   UNL     1      86.856  -0.759  13.776  1.00  0.00     0.174 A 
ATOM     22  C   UNL     1      87.112  -2.034  11.748  1.00  0.00     0.053 A 
ATOM     23  O   UNL     1      87.354  -0.653  15.039  1.00  0.00    -0.395 OA
ATOM     24  C   UNL     1      87.469  -1.759  13.052  1.00  0.00     0.172 A 
ATOM     25  C   UNL     1      88.342  -1.693  15.013  1.00  0.00     0.586 C 
ATOM     26  O   UNL     1      88.429  -2.404  13.771  1.00  0.00    -0.395 OA
ATOM     27  F   UNL     1      88.061  -2.580  16.001  1.00  0.00    -0.125 F 
ATOM     28  F   UNL     1      89.553  -1.148  15.286  1.00  0.00    -0.125 F 
ENDBRANCH  16  18
ENDBRANCH   2  12
TORSDOF 3
ENDMDL
MODEL 5
REMARK VINA RESULT:    -7.251      3.758      9.662
REMARK INTER + INTRA:          -8.923
REMARK INTER:                  -8.672
REMARK INTRA:                  -0.251
REMARK UNBOUND:                -0.401
REMARK SMILES O=C(Nc1ccc2c(c1)OC(F)(F)O2)Nc1ccc(Cl)c(C(F)(F)F)c1
REMARK SMILES IDX 20 1 16 2 21 3 26 4 17 5 19 6 18 7 22 8 23 9 24 10 25 11
REMARK SMILES IDX 15 12 2 13 1 15 3 16 4 18 9 19 5 20 8 21 6 22 10 23 7 24
REMARK SMILES IDX 11 25 14 26 12 27 13 28
REMARK H PARENT 15 14 3 17
REMARK Flexibility Score: inf
ROOT
ATOM      1  Cl  UNL     1      77.842   1.190   6.768  1.00  0.00    -0.084 Cl
ATOM      2  C   UNL     1      81.555   1.130   9.337  1.00  0.00     0.043 A 
ATOM      3  C   UNL     1      79.152   1.305   9.154  1.00  0.00     0.076 A 
ATOM      4  C   UNL     1      80.306   1.284   9.938  1.00  0.00     0.040 A 
ATOM      5  C   UNL     1      81.650   0.996   7.952  1.00  0.00     0.028 A 
ATOM      6  C   UNL     1      79.248   1.171   7.770  1.00  0.00     0.053 A 
ATOM      7  C   UNL     1      80.496   1.016   7.168  1.00  0.00     0.023 A 
ENDROOT
BRANCH   3   8
ATOM      8  C   UNL     1      77.833   1.471   9.837  1.00  0.00     0.417 C 
ATOM      9  F   UNL     1      77.280   2.698   9.613  1.00  0.00    -0.166 F 
ATOM     10  F   UNL     1      76.895   0.565   9.437  1.00  0.00    -0.166 F 
ATOM     11  F   UNL     1      77.903   1.340  11.193  1.00  0.00    -0.166 F 
ENDBRANCH   3   8
BRANCH   2  12
ATOM     12  N   UNL     1      82.725   1.110  10.132  1.00  0.00    -0.308 N 
ATOM     13  C   UNL     1      83.498  -0.001  10.503  1.00  0.00     0.323 C 
ATOM     14  H   UNL     1      83.037   2.017  10.470  1.00  0.00     0.171 HD
ATOM     15  O   UNL     1      83.269  -1.164  10.186  1.00  0.00    -0.248 OA
ATOM     16  N   UNL     1      84.589   0.415  11.305  1.00  0.00    -0.308 N 
ATOM     17  H   UNL     1      84.653   1.414  11.487  1.00  0.00     0.171 HD
BRANCH  16  18
ATOM     18  C   UNL     1      85.594  -0.364  11.880  1.00  0.00     0.046 A 
ATOM     19  C   UNL     1      85.966  -0.144  13.209  1.00  0.00     0.077 A 
ATOM     20  C   UNL     1      86.222  -1.365  11.117  1.00  0.00     0.030 A 
ATOM     21  C   UNL     1      86.964  -0.939  13.735  1.00  0.00     0.174 A 
ATOM     22  C   UNL     1      87.229  -2.157  11.674  1.00  0.00     0.053 A 
ATOM     23  O   UNL     1      87.454  -0.870  15.003  1.00  0.00    -0.395 OA
ATOM     24  C   UNL     1      87.579  -1.920  12.987  1.00  0.00     0.172 A 
ATOM     25  C   UNL     1      88.440  -1.912  14.954  1.00  0.00     0.586 C 
ATOM     26  O   UNL     1      88.533  -2.587  13.692  1.00  0.00    -0.395 OA
ATOM     27  F   UNL     1      88.151  -2.825  15.915  1.00  0.00    -0.125 F 
ATOM     28  F   UNL     1      89.651  -1.377  15.250  1.00  0.00    -0.125 F 
ENDBRANCH  16  18
ENDBRANCH   2  12
TORSDOF 3
ENDMDL
MODEL 6
REMARK VINA RESULT:    -7.248      5.610      9.215
REMARK INTER + INTRA:          -8.920
REMARK INTER:                  -8.627
REMARK INTRA:                  -0.293
REMARK UNBOUND:                -0.401
REMARK SMILES O=C(Nc1ccc2c(c1)OC(F)(F)O2)Nc1ccc(Cl)c(C(F)(F)F)c1
REMARK SMILES IDX 20 1 16 2 21 3 26 4 17 5 19 6 18 7 22 8 23 9 24 10 25 11
REMARK SMILES IDX 15 12 2 13 1 15 3 16 4 18 9 19 5 20 8 21 6 22 10 23 7 24
REMARK SMILES IDX 11 25 14 26 12 27 13 28
REMARK H PARENT 15 14 3 17
REMARK Flexibility Score: inf
ROOT
ATOM      1  Cl  UNL     1      85.302  10.270  10.553  1.00  0.00    -0.084 Cl
ATOM      2  C   UNL     1      85.990   6.345  12.679  1.00  0.00     0.043 A 
ATOM      3  C   UNL     1      84.503   8.150  12.067  1.00  0.00     0.076 A 
ATOM      4  C   UNL     1      84.727   6.937  12.719  1.00  0.00     0.040 A 
ATOM      5  C   UNL     1      87.029   6.967  11.985  1.00  0.00     0.028 A 
ATOM      6  C   UNL     1      85.542   8.771  11.374  1.00  0.00     0.053 A 
ATOM      7  C   UNL     1      86.805   8.179  11.333  1.00  0.00     0.023 A 
ENDROOT
BRANCH   3   8
ATOM      8  C   UNL     1      83.137   8.750  12.133  1.00  0.00     0.417 C 
ATOM      9  F   UNL     1      82.545   8.839  10.908  1.00  0.00    -0.166 F 
ATOM     10  F   UNL     1      82.269   8.041  12.912  1.00  0.00    -0.166 F 
ATOM     11  F   UNL     1      83.123  10.016  12.642  1.00  0.00    -0.166 F 
ENDBRANCH   3   8
BRANCH   2  12
ATOM     12  N   UNL     1      86.217   5.116  13.341  1.00  0.00    -0.308 N 
ATOM     13  C   UNL     1      86.418   3.851  12.768  1.00  0.00     0.323 C 
ATOM     14  H   UNL     1      86.235   5.166  14.356  1.00  0.00     0.171 HD
ATOM     15  O   UNL     1      86.428   3.609  11.565  1.00  0.00    -0.248 OA
ATOM     16  N   UNL     1      86.610   2.884  13.785  1.00  0.00    -0.308 N 
ATOM     17  H   UNL     1      86.576   3.231  14.741  1.00  0.00     0.171 HD
BRANCH  16  18
ATOM     18  C   UNL     1      86.840   1.515  13.653  1.00  0.00     0.046 A 
ATOM     19  C   UNL     1      87.859   0.908  14.393  1.00  0.00     0.077 A 
ATOM     20  C   UNL     1      86.045   0.757  12.774  1.00  0.00     0.030 A 
ATOM     21  C   UNL     1      88.049  -0.449  14.228  1.00  0.00     0.174 A 
ATOM     22  C   UNL     1      86.258  -0.616  12.626  1.00  0.00     0.053 A 
ATOM     23  O   UNL     1      88.986  -1.206  14.862  1.00  0.00    -0.395 OA
ATOM     24  C   UNL     1      87.269  -1.191  13.368  1.00  0.00     0.172 A 
ATOM     25  C   UNL     1      88.701  -2.493  14.297  1.00  0.00     0.586 C 
ATOM     26  O   UNL     1      87.621  -2.506  13.354  1.00  0.00    -0.395 OA
ATOM     27  F   UNL     1      88.406  -3.352  15.306  1.00  0.00    -0.125 F 
ATOM     28  F   UNL     1      89.819  -2.954  13.682  1.00  0.00    -0.125 F 
ENDBRANCH  16  18
ENDBRANCH   2  12
TORSDOF 3
ENDMDL
MODEL 7
REMARK VINA RESULT:    -7.239      3.926      9.466
REMARK INTER + INTRA:          -8.909
REMARK INTER:                  -8.360
REMARK INTRA:                  -0.550
REMARK UNBOUND:                -0.401
REMARK SMILES O=C(Nc1ccc2c(c1)OC(F)(F)O2)Nc1ccc(Cl)c(C(F)(F)F)c1
REMARK SMILES IDX 20 1 16 2 21 3 26 4 17 5 19 6 18 7 22 8 23 9 24 10 25 11
REMARK SMILES IDX 15 12 2 13 1 15 3 16 4 18 9 19 5 20 8 21 6 22 10 23 7 24
REMARK SMILES IDX 11 25 14 26 12 27 13 28
REMARK H PARENT 15 14 3 17
REMARK Flexibility Score: inf
ROOT
ATOM      1  Cl  UNL     1      79.936   0.432   8.093  1.00  0.00    -0.084 Cl
ATOM      2  C   UNL     1      82.966  -0.032  11.409  1.00  0.00     0.043 A 
ATOM      3  C   UNL     1      81.580  -1.031   9.699  1.00  0.00     0.076 A 
ATOM      4  C   UNL     1      82.516  -1.162  10.725  1.00  0.00     0.040 A 
ATOM      5  C   UNL     1      82.478   1.229  11.066  1.00  0.00     0.028 A 
ATOM      6  C   UNL     1      81.093   0.230   9.357  1.00  0.00     0.053 A 
ATOM      7  C   UNL     1      81.542   1.361  10.040  1.00  0.00     0.023 A 
ENDROOT
BRANCH   3   8
ATOM      8  C   UNL     1      81.125  -2.266   8.991  1.00  0.00     0.417 C 
ATOM      9  F   UNL     1      79.804  -2.532   9.202  1.00  0.00    -0.166 F 
ATOM     10  F   UNL     1      81.277  -2.203   7.637  1.00  0.00    -0.166 F 
ATOM     11  F   UNL     1      81.794  -3.391   9.376  1.00  0.00    -0.166 F 
ENDBRANCH   3   8
BRANCH   2  12
ATOM     12  N   UNL     1      83.914  -0.166  12.449  1.00  0.00    -0.308 N 
ATOM     13  C   UNL     1      85.307  -0.304  12.336  1.00  0.00     0.323 C 
ATOM     14  H   UNL     1      83.531  -0.159  13.391  1.00  0.00     0.171 HD
ATOM     15  O   UNL     1      85.934  -0.332  11.282  1.00  0.00    -0.248 OA
ATOM     16  N   UNL     1      85.888  -0.408  13.623  1.00  0.00    -0.308 N 
ATOM     17  H   UNL     1      85.242  -0.369  14.408  1.00  0.00     0.171 HD
BRANCH  16  18
ATOM     18  C   UNL     1      87.234  -0.557  13.961  1.00  0.00     0.046 A 
ATOM     19  C   UNL     1      87.970   0.553  14.383  1.00  0.00     0.077 A 
ATOM     20  C   UNL     1      87.837  -1.825  13.874  1.00  0.00     0.030 A 
ATOM     21  C   UNL     1      89.297   0.356  14.707  1.00  0.00     0.174 A 
ATOM     22  C   UNL     1      89.183  -1.998  14.207  1.00  0.00     0.053 A 
ATOM     23  O   UNL     1      90.164   1.314  15.135  1.00  0.00    -0.395 OA
ATOM     24  C   UNL     1      89.887  -0.887  14.621  1.00  0.00     0.172 A 
ATOM     25  C   UNL     1      91.353   0.528  15.301  1.00  0.00     0.586 C 
ATOM     26  O   UNL     1      91.199  -0.862  14.984  1.00  0.00    -0.395 OA
ATOM     27  F   UNL     1      91.766   0.636  16.589  1.00  0.00    -0.125 F 
ATOM     28  F   UNL     1      92.329   1.046  14.515  1.00  0.00    -0.125 F 
ENDBRANCH  16  18
ENDBRANCH   2  12
TORSDOF 3
ENDMDL
MODEL 8
REMARK VINA RESULT:    -7.115      3.577      9.619
REMARK INTER + INTRA:          -8.764
REMARK INTER:                  -8.446
REMARK INTRA:                  -0.318
REMARK UNBOUND:                -0.401
REMARK SMILES O=C(Nc1ccc2c(c1)OC(F)(F)O2)Nc1ccc(Cl)c(C(F)(F)F)c1
REMARK SMILES IDX 20 1 16 2 21 3 26 4 17 5 19 6 18 7 22 8 23 9 24 10 25 11
REMARK SMILES IDX 15 12 2 13 1 15 3 16 4 18 9 19 5 20 8 21 6 22 10 23 7 24
REMARK SMILES IDX 11 25 14 26 12 27 13 28
REMARK H PARENT 15 14 3 17
REMARK Flexibility Score: inf
ROOT
ATOM      1  Cl  UNL     1      80.173   1.703   7.055  1.00  0.00    -0.084 Cl
ATOM      2  C   UNL     1      83.083   1.618  10.506  1.00  0.00     0.043 A 
ATOM      3  C   UNL     1      80.840   1.298   9.665  1.00  0.00     0.076 A 
ATOM      4  C   UNL     1      81.749   1.275  10.723  1.00  0.00     0.040 A 
ATOM      5  C   UNL     1      83.509   1.985   9.229  1.00  0.00     0.028 A 
ATOM      6  C   UNL     1      81.267   1.665   8.389  1.00  0.00     0.053 A 
ATOM      7  C   UNL     1      82.601   2.008   8.170  1.00  0.00     0.023 A 
ENDROOT
BRANCH   3   8
ATOM      8  C   UNL     1      79.421   0.923   9.939  1.00  0.00     0.417 C 
ATOM      9  F   UNL     1      79.116  -0.329   9.493  1.00  0.00    -0.166 F 
ATOM     10  F   UNL     1      79.103   0.929  11.266  1.00  0.00    -0.166 F 
ATOM     11  F   UNL     1      78.514   1.755   9.350  1.00  0.00    -0.166 F 
ENDBRANCH   3   8
BRANCH   2  12
ATOM     12  N   UNL     1      84.004   1.595  11.580  1.00  0.00    -0.308 N 
ATOM     13  C   UNL     1      85.106   0.744  11.754  1.00  0.00     0.323 C 
ATOM     14  H   UNL     1      83.839   2.284  12.309  1.00  0.00     0.171 HD
ATOM     15  O   UNL     1      85.450  -0.141  10.977  1.00  0.00    -0.248 OA
ATOM     16  N   UNL     1      85.769   1.054  12.967  1.00  0.00    -0.308 N 
ATOM     17  H   UNL     1      85.369   1.815  13.511  1.00  0.00     0.171 HD
BRANCH  16  18
ATOM     18  C   UNL     1      86.902   0.454  13.518  1.00  0.00     0.046 A 
ATOM     19  C   UNL     1      88.077   1.195  13.665  1.00  0.00     0.077 A 
ATOM     20  C   UNL     1      86.850  -0.893  13.920  1.00  0.00     0.030 A 
ATOM     21  C   UNL     1      89.171   0.559  14.214  1.00  0.00     0.174 A 
ATOM     22  C   UNL     1      87.972  -1.514  14.474  1.00  0.00     0.053 A 
ATOM     23  O   UNL     1      90.393   1.119  14.434  1.00  0.00    -0.395 OA
ATOM     24  C   UNL     1      89.120  -0.760  14.609  1.00  0.00     0.172 A 
ATOM     25  C   UNL     1      91.089   0.001  15.003  1.00  0.00     0.586 C 
ATOM     26  O   UNL     1      90.304  -1.193  15.124  1.00  0.00    -0.395 OA
ATOM     27  F   UNL     1      91.536   0.352  16.235  1.00  0.00    -0.125 F 
ATOM     28  F   UNL     1      92.174  -0.270  14.236  1.00  0.00    -0.125 F 
ENDBRANCH  16  18
ENDBRANCH   2  12
TORSDOF 3
ENDMDL
MODEL 9
REMARK VINA RESULT:    -7.074      3.934      9.633
REMARK INTER + INTRA:          -8.715
REMARK INTER:                  -8.365
REMARK INTRA:                  -0.350
REMARK UNBOUND:                -0.401
REMARK SMILES O=C(Nc1ccc2c(c1)OC(F)(F)O2)Nc1ccc(Cl)c(C(F)(F)F)c1
REMARK SMILES IDX 20 1 16 2 21 3 26 4 17 5 19 6 18 7 22 8 23 9 24 10 25 11
REMARK SMILES IDX 15 12 2 13 1 15 3 16 4 18 9 19 5 20 8 21 6 22 10 23 7 24
REMARK SMILES IDX 11 25 14 26 12 27 13 28
REMARK H PARENT 15 14 3 17
REMARK Flexibility Score: inf
ROOT
ATOM      1  Cl  UNL     1      79.573   1.410   7.568  1.00  0.00    -0.084 Cl
ATOM      2  C   UNL     1      82.809   1.481  10.717  1.00  0.00     0.043 A 
ATOM      3  C   UNL     1      82.082   1.978   8.466  1.00  0.00     0.076 A 
ATOM      4  C   UNL     1      83.074   1.996   9.447  1.00  0.00     0.040 A 
ATOM      5  C   UNL     1      81.552   0.950  11.005  1.00  0.00     0.028 A 
ATOM      6  C   UNL     1      80.826   1.447   8.755  1.00  0.00     0.053 A 
ATOM      7  C   UNL     1      80.559   0.932  10.024  1.00  0.00     0.023 A 
ENDROOT
BRANCH   3   8
ATOM      8  C   UNL     1      82.405   2.540   7.120  1.00  0.00     0.417 C 
ATOM      9  F   UNL     1      82.518   1.573   6.164  1.00  0.00    -0.166 F 
ATOM     10  F   UNL     1      81.465   3.412   6.654  1.00  0.00    -0.166 F 
ATOM     11  F   UNL     1      83.582   3.230   7.087  1.00  0.00    -0.166 F 
ENDBRANCH   3   8
BRANCH   2  12
ATOM     12  N   UNL     1      83.815   1.498  11.711  1.00  0.00    -0.308 N 
ATOM     13  C   UNL     1      84.880   0.599  11.877  1.00  0.00     0.323 C 
ATOM     14  H   UNL     1      83.751   2.259  12.382  1.00  0.00     0.171 HD
ATOM     15  O   UNL     1      85.108  -0.372  11.163  1.00  0.00    -0.248 OA
ATOM     16  N   UNL     1      85.660   0.975  12.998  1.00  0.00    -0.308 N 
ATOM     17  H   UNL     1      85.350   1.805  13.498  1.00  0.00     0.171 HD
BRANCH  16  18
ATOM     18  C   UNL     1      86.801   0.358  13.512  1.00  0.00     0.046 A 
ATOM     19  C   UNL     1      87.966   1.105  13.704  1.00  0.00     0.077 A 
ATOM     20  C   UNL     1      86.768  -1.012  13.831  1.00  0.00     0.030 A 
ATOM     21  C   UNL     1      89.069   0.451  14.214  1.00  0.00     0.174 A 
ATOM     22  C   UNL     1      87.898  -1.650  14.346  1.00  0.00     0.053 A 
ATOM     23  O   UNL     1      90.283   1.013  14.467  1.00  0.00    -0.395 OA
ATOM     24  C   UNL     1      89.036  -0.891  14.527  1.00  0.00     0.172 A 
ATOM     25  C   UNL     1      90.994  -0.129  14.967  1.00  0.00     0.586 C 
ATOM     26  O   UNL     1      90.225  -1.338  15.015  1.00  0.00    -0.395 OA
ATOM     27  F   UNL     1      91.438   0.152  16.219  1.00  0.00    -0.125 F 
ATOM     28  F   UNL     1      92.083  -0.337  14.186  1.00  0.00    -0.125 F 
ENDBRANCH  16  18
ENDBRANCH   2  12
TORSDOF 3
ENDMDL
MODEL 10
REMARK VINA RESULT:    -6.942      2.429      2.950
REMARK INTER + INTRA:          -8.561
REMARK INTER:                  -7.992
REMARK INTRA:                  -0.568
REMARK UNBOUND:                -0.401
REMARK SMILES O=C(Nc1ccc2c(c1)OC(F)(F)O2)Nc1ccc(Cl)c(C(F)(F)F)c1
REMARK SMILES IDX 20 1 16 2 21 3 26 4 17 5 19 6 18 7 22 8 23 9 24 10 25 11
REMARK SMILES IDX 15 12 2 13 1 15 3 16 4 18 9 19 5 20 8 21 6 22 10 23 7 24
REMARK SMILES IDX 11 25 14 26 12 27 13 28
REMARK H PARENT 15 14 3 17
REMARK Flexibility Score: inf
ROOT
ATOM      1  Cl  UNL     1      91.553  -0.333  15.224  1.00  0.00    -0.084 Cl
ATOM      2  C   UNL     1      87.198  -0.248  14.035  1.00  0.00     0.043 A 
ATOM      3  C   UNL     1      89.225   0.938  14.602  1.00  0.00     0.076 A 
ATOM      4  C   UNL     1      87.879   0.952  14.233  1.00  0.00     0.040 A 
ATOM      5  C   UNL     1      87.862  -1.463  14.205  1.00  0.00     0.028 A 
ATOM      6  C   UNL     1      89.888  -0.276  14.772  1.00  0.00     0.053 A 
ATOM      7  C   UNL     1      89.208  -1.478  14.573  1.00  0.00     0.023 A 
ENDROOT
BRANCH   3   8
ATOM      8  C   UNL     1      89.919   2.246  14.803  1.00  0.00     0.417 C 
ATOM      9  F   UNL     1      89.070   3.309  14.706  1.00  0.00    -0.166 F 
ATOM     10  F   UNL     1      90.517   2.362  16.025  1.00  0.00    -0.166 F 
ATOM     11  F   UNL     1      90.910   2.482  13.895  1.00  0.00    -0.166 F 
ENDBRANCH   3   8
BRANCH   2  12
ATOM     12  N   UNL     1      85.833  -0.234  13.662  1.00  0.00    -0.308 N 
ATOM     13  C   UNL     1      85.291  -0.097  12.374  1.00  0.00     0.323 C 
ATOM     14  H   UNL     1      85.172  -0.337  14.427  1.00  0.00     0.171 HD
ATOM     15  O   UNL     1      85.939   0.036  11.341  1.00  0.00    -0.248 OA
ATOM     16  N   UNL     1      83.877  -0.135  12.439  1.00  0.00    -0.308 N 
ATOM     17  H   UNL     1      83.476  -0.251  13.367  1.00  0.00     0.171 HD
BRANCH  16  18
ATOM     18  C   UNL     1      82.955  -0.034  11.396  1.00  0.00     0.046 A 
ATOM     19  C   UNL     1      82.479  -1.193  10.777  1.00  0.00     0.077 A 
ATOM     20  C   UNL     1      82.512   1.234  10.979  1.00  0.00     0.030 A 
ATOM     21  C   UNL     1      81.569  -1.043   9.751  1.00  0.00     0.174 A 
ATOM     22  C   UNL     1      81.589   1.359   9.938  1.00  0.00     0.053 A 
ATOM     23  O   UNL     1      81.000  -2.052   9.036  1.00  0.00    -0.395 OA
ATOM     24  C   UNL     1      81.135   0.200   9.343  1.00  0.00     0.172 A 
ATOM     25  C   UNL     1      80.171  -1.296   8.141  1.00  0.00     0.586 C 
ATOM     26  O   UNL     1      80.240   0.125   8.319  1.00  0.00    -0.395 OA
ATOM     27  F   UNL     1      78.883  -1.691   8.306  1.00  0.00    -0.125 F 
ATOM     28  F   UNL     1      80.528  -1.591   6.866  1.00  0.00    -0.125 F 
ENDBRANCH  16  18
ENDBRANCH   2  12
TORSDOF 3
ENDMDL
MODEL 11
REMARK VINA RESULT:    -6.922      2.082      2.373
REMARK INTER + INTRA:          -8.536
REMARK INTER:                  -8.116
REMARK INTRA:                  -0.420
REMARK UNBOUND:                -0.401
REMARK SMILES O=C(Nc1ccc2c(c1)OC(F)(F)O2)Nc1ccc(Cl)c(C(F)(F)F)c1
REMARK SMILES IDX 20 1 16 2 21 3 26 4 17 5 19 6 18 7 22 8 23 9 24 10 25 11
REMARK SMILES IDX 15 12 2 13 1 15 3 16 4 18 9 19 5 20 8 21 6 22 10 23 7 24
REMARK SMILES IDX 11 25 14 26 12 27 13 28
REMARK H PARENT 15 14 3 17
REMARK Flexibility Score: inf
ROOT
ATOM      1  Cl  UNL     1      89.788  -3.099  13.838  1.00  0.00    -0.084 Cl
ATOM      2  C   UNL     1      86.351  -0.473  12.541  1.00  0.00     0.043 A 
ATOM      3  C   UNL     1      88.185  -1.938  11.966  1.00  0.00     0.076 A 
ATOM      4  C   UNL     1      87.120  -1.125  11.577  1.00  0.00     0.040 A 
ATOM      5  C   UNL     1      86.646  -0.635  13.894  1.00  0.00     0.028 A 
ATOM      6  C   UNL     1      88.480  -2.099  13.319  1.00  0.00     0.053 A 
ATOM      7  C   UNL     1      87.711  -1.449  14.284  1.00  0.00     0.023 A 
ENDROOT
BRANCH   3   8
ATOM      8  C   UNL     1      88.984  -2.619  10.902  1.00  0.00     0.417 C 
ATOM      9  F   UNL     1      88.519  -2.352   9.648  1.00  0.00    -0.166 F 
ATOM     10  F   UNL     1      90.299  -2.256  10.893  1.00  0.00    -0.166 F 
ATOM     11  F   UNL     1      88.987  -3.979  11.012  1.00  0.00    -0.166 F 
ENDBRANCH   3   8
BRANCH   2  12
ATOM     12  N   UNL     1      85.272   0.352  12.146  1.00  0.00    -0.308 N 
ATOM     13  C   UNL     1      84.200   0.026  11.300  1.00  0.00     0.323 C 
ATOM     14  H   UNL     1      85.283   1.294  12.527  1.00  0.00     0.171 HD
ATOM     15  O   UNL     1      84.030  -1.060  10.756  1.00  0.00    -0.248 OA
ATOM     16  N   UNL     1      83.336   1.140  11.164  1.00  0.00    -0.308 N 
ATOM     17  H   UNL     1      83.604   1.977  11.676  1.00  0.00     0.171 HD
BRANCH  16  18
ATOM     18  C   UNL     1      82.160   1.244  10.420  1.00  0.00     0.046 A 
ATOM     19  C   UNL     1      80.933   0.942  11.016  1.00  0.00     0.077 A 
ATOM     20  C   UNL     1      82.222   1.651   9.075  1.00  0.00     0.030 A 
ATOM     21  C   UNL     1      79.798   1.060  10.240  1.00  0.00     0.174 A 
ATOM     22  C   UNL     1      81.057   1.763   8.311  1.00  0.00     0.053 A 
ATOM     23  O   UNL     1      78.523   0.811  10.648  1.00  0.00    -0.395 OA
ATOM     24  C   UNL     1      79.859   1.460   8.923  1.00  0.00     0.172 A 
ATOM     25  C   UNL     1      77.806   1.097   9.439  1.00  0.00     0.586 C 
ATOM     26  O   UNL     1      78.629   1.510   8.339  1.00  0.00    -0.395 OA
ATOM     27  F   UNL     1      76.902   2.076   9.694  1.00  0.00    -0.125 F 
ATOM     28  F   UNL     1      77.115  -0.011   9.071  1.00  0.00    -0.125 F 
ENDBRANCH  16  18
ENDBRANCH   2  12
TORSDOF 3
ENDMDL
MODEL 12
REMARK VINA RESULT:    -6.908      2.176      2.767
REMARK INTER + INTRA:          -8.520
REMARK INTER:                  -8.082
REMARK INTRA:                  -0.438
REMARK UNBOUND:                -0.401
REMARK SMILES O=C(Nc1ccc2c(c1)OC(F)(F)O2)Nc1ccc(Cl)c(C(F)(F)F)c1
REMARK SMILES IDX 20 1 16 2 21 3 26 4 17 5 19 6 18 7 22 8 23 9 24 10 25 11
REMARK SMILES IDX 15 12 2 13 1 15 3 16 4 18 9 19 5 20 8 21 6 22 10 23 7 24
REMARK SMILES IDX 11 25 14 26 12 27 13 28
REMARK H PARENT 15 14 3 17
REMARK Flexibility Score: inf
ROOT
ATOM      1  Cl  UNL     1      92.353  -2.595  14.176  1.00  0.00    -0.084 Cl
ATOM      2  C   UNL     1      88.054  -1.342  13.593  1.00  0.00     0.043 A 
ATOM      3  C   UNL     1      90.295  -0.817  14.332  1.00  0.00     0.076 A 
ATOM      4  C   UNL     1      88.964  -0.441  14.146  1.00  0.00     0.040 A 
ATOM      5  C   UNL     1      88.476  -2.620  13.225  1.00  0.00     0.028 A 
ATOM      6  C   UNL     1      90.715  -2.095  13.964  1.00  0.00     0.053 A 
ATOM      7  C   UNL     1      89.806  -2.997  13.410  1.00  0.00     0.023 A 
ENDROOT
BRANCH   3   8
ATOM      8  C   UNL     1      91.237   0.178  14.926  1.00  0.00     0.417 C 
ATOM      9  F   UNL     1      92.300   0.441  14.113  1.00  0.00    -0.166 F 
ATOM     10  F   UNL     1      90.661   1.387  15.184  1.00  0.00    -0.166 F 
ATOM     11  F   UNL     1      91.774  -0.224  16.115  1.00  0.00    -0.166 F 
ENDBRANCH   3   8
BRANCH   2  12
ATOM     12  N   UNL     1      86.705  -0.961  13.406  1.00  0.00    -0.308 N 
ATOM     13  C   UNL     1      86.099  -0.473  12.237  1.00  0.00     0.323 C 
ATOM     14  H   UNL     1      86.109  -1.056  14.224  1.00  0.00     0.171 HD
ATOM     15  O   UNL     1      86.667  -0.296  11.164  1.00  0.00    -0.248 OA
ATOM     16  N   UNL     1      84.728  -0.211  12.477  1.00  0.00    -0.308 N 
ATOM     17  H   UNL     1      84.395  -0.406  13.418  1.00  0.00     0.171 HD
BRANCH  16  18
ATOM     18  C   UNL     1      83.768   0.280  11.591  1.00  0.00     0.046 A 
ATOM     19  C   UNL     1      82.609  -0.461  11.344  1.00  0.00     0.077 A 
ATOM     20  C   UNL     1      83.976   1.517  10.955  1.00  0.00     0.030 A 
ATOM     21  C   UNL     1      81.689   0.065  10.461  1.00  0.00     0.174 A 
ATOM     22  C   UNL     1      83.029   2.028  10.065  1.00  0.00     0.053 A 
ATOM     23  O   UNL     1      80.509  -0.510  10.101  1.00  0.00    -0.395 OA
ATOM     24  C   UNL     1      81.893   1.278   9.838  1.00  0.00     0.172 A 
ATOM     25  C   UNL     1      80.011   0.477   9.187  1.00  0.00     0.586 C 
ATOM     26  O   UNL     1      80.867   1.613   9.008  1.00  0.00    -0.395 OA
ATOM     27  F   UNL     1      78.804   0.909   9.633  1.00  0.00    -0.125 F 
ATOM     28  F   UNL     1      79.813  -0.110   7.980  1.00  0.00    -0.125 F 
ENDBRANCH  16  18
ENDBRANCH   2  12
TORSDOF 3
ENDMDL
MODEL 13
REMARK VINA RESULT:    -6.897      3.924      9.672
REMARK INTER + INTRA:          -8.507
REMARK INTER:                  -7.949
REMARK INTRA:                  -0.557
REMARK UNBOUND:                -0.401
REMARK SMILES O=C(Nc1ccc2c(c1)OC(F)(F)O2)Nc1ccc(Cl)c(C(F)(F)F)c1
REMARK SMILES IDX 20 1 16 2 21 3 26 4 17 5 19 6 18 7 22 8 23 9 24 10 25 11
REMARK SMILES IDX 15 12 2 13 1 15 3 16 4 18 9 19 5 20 8 21 6 22 10 23 7 24
REMARK SMILES IDX 11 25 14 26 12 27 13 28
REMARK H PARENT 15 14 3 17
REMARK Flexibility Score: inf
ROOT
ATOM      1  Cl  UNL     1      80.549   1.313   8.974  1.00  0.00    -0.084 Cl
ATOM      2  C   UNL     1      83.813  -0.170  11.718  1.00  0.00     0.043 A 
ATOM      3  C   UNL     1      82.088  -0.637  10.092  1.00  0.00     0.076 A 
ATOM      4  C   UNL     1      83.100  -1.084  10.943  1.00  0.00     0.040 A 
ATOM      5  C   UNL     1      83.516   1.190  11.643  1.00  0.00     0.028 A 
ATOM      6  C   UNL     1      81.791   0.723  10.017  1.00  0.00     0.053 A 
ATOM      7  C   UNL     1      82.505   1.638  10.792  1.00  0.00     0.023 A 
ENDROOT
BRANCH   3   8
ATOM      8  C   UNL     1      81.349  -1.648   9.277  1.00  0.00     0.417 C 
ATOM      9  F   UNL     1      81.717  -2.927   9.571  1.00  0.00    -0.166 F 
ATOM     10  F   UNL     1      79.996  -1.603   9.452  1.00  0.00    -0.166 F 
ATOM     11  F   UNL     1      81.541  -1.509   7.933  1.00  0.00    -0.166 F 
ENDBRANCH   3   8
BRANCH   2  12
ATOM     12  N   UNL     1      84.838  -0.624  12.582  1.00  0.00    -0.308 N 
ATOM     13  C   UNL     1      86.226  -0.577  12.374  1.00  0.00     0.323 C 
ATOM     14  H   UNL     1      84.521  -1.030  13.458  1.00  0.00     0.171 HD
ATOM     15  O   UNL     1      86.780  -0.123  11.379  1.00  0.00    -0.248 OA
ATOM     16  N   UNL     1      86.900  -1.136  13.488  1.00  0.00    -0.308 N 
ATOM     17  H   UNL     1      86.308  -1.475  14.242  1.00  0.00     0.171 HD
BRANCH  16  18
ATOM     18  C   UNL     1      88.272  -1.286  13.689  1.00  0.00     0.046 A 
ATOM     19  C   UNL     1      88.905  -2.470  13.301  1.00  0.00     0.077 A 
ATOM     20  C   UNL     1      89.007  -0.242  14.281  1.00  0.00     0.030 A 
ATOM     21  C   UNL     1      90.264  -2.571  13.520  1.00  0.00     0.174 A 
ATOM     22  C   UNL     1      90.382  -0.370  14.491  1.00  0.00     0.053 A 
ATOM     23  O   UNL     1      91.044  -3.643  13.209  1.00  0.00    -0.395 OA
ATOM     24  C   UNL     1      90.983  -1.548  14.100  1.00  0.00     0.172 A 
ATOM     25  C   UNL     1      92.321  -3.170  13.662  1.00  0.00     0.586 C 
ATOM     26  O   UNL     1      92.304  -1.851  14.225  1.00  0.00    -0.395 OA
ATOM     27  F   UNL     1      93.183  -3.183  12.615  1.00  0.00    -0.125 F 
ATOM     28  F   UNL     1      92.797  -4.033  14.594  1.00  0.00    -0.125 F 
ENDBRANCH  16  18
ENDBRANCH   2  12
TORSDOF 3
ENDMDL
MODEL 14
REMARK VINA RESULT:    -6.893      3.790      9.882
REMARK INTER + INTRA:          -8.502
REMARK INTER:                  -7.981
REMARK INTRA:                  -0.521
REMARK UNBOUND:                -0.401
REMARK SMILES O=C(Nc1ccc2c(c1)OC(F)(F)O2)Nc1ccc(Cl)c(C(F)(F)F)c1
REMARK SMILES IDX 20 1 16 2 21 3 26 4 17 5 19 6 18 7 22 8 23 9 24 10 25 11
REMARK SMILES IDX 15 12 2 13 1 15 3 16 4 18 9 19 5 20 8 21 6 22 10 23 7 24
REMARK SMILES IDX 11 25 14 26 12 27 13 28
REMARK H PARENT 15 14 3 17
REMARK Flexibility Score: inf
ROOT
ATOM      1  Cl  UNL     1      76.560  -0.326   7.859  1.00  0.00    -0.084 Cl
ATOM      2  C   UNL     1      80.857   0.335   9.077  1.00  0.00     0.043 A 
ATOM      3  C   UNL     1      78.720   1.242   8.406  1.00  0.00     0.076 A 
ATOM      4  C   UNL     1      80.049   1.434   8.785  1.00  0.00     0.040 A 
ATOM      5  C   UNL     1      80.336  -0.956   8.993  1.00  0.00     0.028 A 
ATOM      6  C   UNL     1      78.199  -0.049   8.321  1.00  0.00     0.053 A 
ATOM      7  C   UNL     1      79.006  -1.149   8.615  1.00  0.00     0.023 A 
ENDROOT
BRANCH   3   8
ATOM      8  C   UNL     1      77.888   2.445   8.101  1.00  0.00     0.417 C 
ATOM      9  F   UNL     1      78.598   3.606   8.184  1.00  0.00    -0.166 F 
ATOM     10  F   UNL     1      77.349   2.430   6.848  1.00  0.00    -0.166 F 
ATOM     11  F   UNL     1      76.827   2.600   8.946  1.00  0.00    -0.166 F 
ENDBRANCH   3   8
BRANCH   2  12
ATOM     12  N   UNL     1      82.205   0.530   9.460  1.00  0.00    -0.308 N 
ATOM     13  C   UNL     1      82.775   0.361  10.732  1.00  0.00     0.323 C 
ATOM     14  H   UNL     1      82.830   0.828   8.716  1.00  0.00     0.171 HD
ATOM     15  O   UNL     1      82.171   0.008  11.739  1.00  0.00    -0.248 OA
ATOM     16  N   UNL     1      84.158   0.660  10.685  1.00  0.00    -0.308 N 
ATOM     17  H   UNL     1      84.523   0.941   9.778  1.00  0.00     0.171 HD
BRANCH  16  18
ATOM     18  C   UNL     1      85.093   0.621  11.720  1.00  0.00     0.046 A 
ATOM     19  C   UNL     1      85.583  -0.609  12.166  1.00  0.00     0.077 A 
ATOM     20  C   UNL     1      85.534   1.822  12.306  1.00  0.00     0.030 A 
ATOM     21  C   UNL     1      86.505  -0.598  13.192  1.00  0.00     0.174 A 
ATOM     22  C   UNL     1      86.469   1.806  13.344  1.00  0.00     0.053 A 
ATOM     23  O   UNL     1      87.089  -1.693  13.752  1.00  0.00    -0.395 OA
ATOM     24  C   UNL     1      86.937   0.579  13.765  1.00  0.00     0.172 A 
ATOM     25  C   UNL     1      87.925  -1.063  14.734  1.00  0.00     0.586 C 
ATOM     26  O   UNL     1      87.845   0.368  14.758  1.00  0.00    -0.395 OA
ATOM     27  F   UNL     1      89.213  -1.422  14.500  1.00  0.00    -0.125 F 
ATOM     28  F   UNL     1      87.586  -1.536  15.960  1.00  0.00    -0.125 F 
ENDBRANCH  16  18
ENDBRANCH   2  12
TORSDOF 3
ENDMDL
MODEL 15
REMARK VINA RESULT:    -6.881      8.795      9.524
REMARK INTER + INTRA:          -8.488
REMARK INTER:                  -8.083
REMARK INTRA:                  -0.406
REMARK UNBOUND:                -0.401
REMARK SMILES O=C(Nc1ccc2c(c1)OC(F)(F)O2)Nc1ccc(Cl)c(C(F)(F)F)c1
REMARK SMILES IDX 20 1 16 2 21 3 26 4 17 5 19 6 18 7 22 8 23 9 24 10 25 11
REMARK SMILES IDX 15 12 2 13 1 15 3 16 4 18 9 19 5 20 8 21 6 22 10 23 7 24
REMARK SMILES IDX 11 25 14 26 12 27 13 28
REMARK H PARENT 15 14 3 17
REMARK Flexibility Score: inf
ROOT
ATOM      1  Cl  UNL     1      87.318   1.494  10.111  1.00  0.00    -0.084 Cl
ATOM      2  C   UNL     1      85.726   5.339  11.863  1.00  0.00     0.043 A 
ATOM      3  C   UNL     1      86.956   4.194  10.126  1.00  0.00     0.076 A 
ATOM      4  C   UNL     1      86.459   5.376  10.677  1.00  0.00     0.040 A 
ATOM      5  C   UNL     1      85.490   4.120  12.499  1.00  0.00     0.028 A 
ATOM      6  C   UNL     1      86.720   2.976  10.763  1.00  0.00     0.053 A 
ATOM      7  C   UNL     1      85.987   2.938  11.949  1.00  0.00     0.023 A 
ENDROOT
BRANCH   3   8
ATOM      8  C   UNL     1      87.735   4.276   8.854  1.00  0.00     0.417 C 
ATOM      9  F   UNL     1      88.996   3.773   8.980  1.00  0.00    -0.166 F 
ATOM     10  F   UNL     1      87.165   3.590   7.822  1.00  0.00    -0.166 F 
ATOM     11  F   UNL     1      87.892   5.552   8.394  1.00  0.00    -0.166 F 
ENDBRANCH   3   8
BRANCH   2  12
ATOM     12  N   UNL     1      85.223   6.537  12.421  1.00  0.00    -0.308 N 
ATOM     13  C   UNL     1      84.444   7.522  11.793  1.00  0.00     0.323 C 
ATOM     14  H   UNL     1      85.459   6.695  13.397  1.00  0.00     0.171 HD
ATOM     15  O   UNL     1      84.069   7.493  10.626  1.00  0.00    -0.248 OA
ATOM     16  N   UNL     1      84.151   8.563  12.709  1.00  0.00    -0.308 N 
ATOM     17  H   UNL     1      84.530   8.451  13.646  1.00  0.00     0.171 HD
BRANCH  16  18
ATOM     18  C   UNL     1      83.409   9.725  12.496  1.00  0.00     0.046 A 
ATOM     19  C   UNL     1      84.068  10.933  12.250  1.00  0.00     0.077 A 
ATOM     20  C   UNL     1      82.004   9.671  12.533  1.00  0.00     0.030 A 
ATOM     21  C   UNL     1      83.292  12.056  12.046  1.00  0.00     0.174 A 
ATOM     22  C   UNL     1      81.241  10.822  12.322  1.00  0.00     0.053 A 
ATOM     23  O   UNL     1      83.755  13.310  11.793  1.00  0.00    -0.395 OA
ATOM     24  C   UNL     1      81.915  12.001  12.081  1.00  0.00     0.172 A 
ATOM     25  C   UNL     1      82.515  14.024  11.679  1.00  0.00     0.586 C 
ATOM     26  O   UNL     1      81.343  13.216  11.855  1.00  0.00    -0.395 OA
ATOM     27  F   UNL     1      82.462  14.604  10.454  1.00  0.00    -0.125 F 
ATOM     28  F   UNL     1      82.501  15.017  12.603  1.00  0.00    -0.125 F 
ENDBRANCH  16  18
ENDBRANCH   2  12
TORSDOF 3
ENDMDL
MODEL 16
REMARK VINA RESULT:    -6.777      5.212      7.279
REMARK INTER + INTRA:          -8.366
REMARK INTER:                  -7.942
REMARK INTRA:                  -0.424
REMARK UNBOUND:                -0.401
REMARK SMILES O=C(Nc1ccc2c(c1)OC(F)(F)O2)Nc1ccc(Cl)c(C(F)(F)F)c1
REMARK SMILES IDX 20 1 16 2 21 3 26 4 17 5 19 6 18 7 22 8 23 9 24 10 25 11
REMARK SMILES IDX 15 12 2 13 1 15 3 16 4 18 9 19 5 20 8 21 6 22 10 23 7 24
REMARK SMILES IDX 11 25 14 26 12 27 13 28
REMARK H PARENT 15 14 3 17
REMARK Flexibility Score: inf
ROOT
ATOM      1  Cl  UNL     1      85.850   2.718  11.448  1.00  0.00    -0.084 Cl
ATOM      2  C   UNL     1      81.973   0.756  10.221  1.00  0.00     0.043 A 
ATOM      3  C   UNL     1      83.774   2.292   9.736  1.00  0.00     0.076 A 
ATOM      4  C   UNL     1      82.577   1.678   9.367  1.00  0.00     0.040 A 
ATOM      5  C   UNL     1      82.567   0.446  11.445  1.00  0.00     0.028 A 
ATOM      6  C   UNL     1      84.368   1.982  10.959  1.00  0.00     0.053 A 
ATOM      7  C   UNL     1      83.765   1.058  11.814  1.00  0.00     0.023 A 
ENDROOT
BRANCH   3   8
ATOM      8  C   UNL     1      84.389   3.273   8.792  1.00  0.00     0.417 C 
ATOM      9  F   UNL     1      84.571   4.500   9.359  1.00  0.00    -0.166 F 
ATOM     10  F   UNL     1      85.618   2.893   8.335  1.00  0.00    -0.166 F 
ATOM     11  F   UNL     1      83.642   3.492   7.672  1.00  0.00    -0.166 F 
ENDBRANCH   3   8
BRANCH   2  12
ATOM     12  N   UNL     1      80.758   0.135   9.847  1.00  0.00    -0.308 N 
ATOM     13  C   UNL     1      80.562  -1.181   9.398  1.00  0.00     0.323 C 
ATOM     14  H   UNL     1      79.930   0.722   9.916  1.00  0.00     0.171 HD
ATOM     15  O   UNL     1      81.445  -2.020   9.256  1.00  0.00    -0.248 OA
ATOM     16  N   UNL     1      79.189  -1.401   9.130  1.00  0.00    -0.308 N 
ATOM     17  H   UNL     1      78.571  -0.610   9.294  1.00  0.00     0.171 HD
BRANCH  16  18
ATOM     18  C   UNL     1      78.568  -2.562   8.669  1.00  0.00     0.046 A 
ATOM     19  C   UNL     1      78.699  -3.752   9.390  1.00  0.00     0.077 A 
ATOM     20  C   UNL     1      77.814  -2.524   7.482  1.00  0.00     0.030 A 
ATOM     21  C   UNL     1      78.066  -4.873   8.895  1.00  0.00     0.174 A 
ATOM     22  C   UNL     1      77.183  -3.674   7.002  1.00  0.00     0.053 A 
ATOM     23  O   UNL     1      78.082  -6.112   9.459  1.00  0.00    -0.395 OA
ATOM     24  C   UNL     1      77.328  -4.835   7.732  1.00  0.00     0.172 A 
ATOM     25  C   UNL     1      77.276  -6.834   8.517  1.00  0.00     0.586 C 
ATOM     26  O   UNL     1      76.789  -6.046   7.421  1.00  0.00    -0.395 OA
ATOM     27  F   UNL     1      76.215  -7.366   9.174  1.00  0.00    -0.125 F 
ATOM     28  F   UNL     1      78.006  -7.863   8.020  1.00  0.00    -0.125 F 
ENDBRANCH  16  18
ENDBRANCH   2  12
TORSDOF 3
ENDMDL
MODEL 17
REMARK VINA RESULT:    -6.768      8.431      9.199
REMARK INTER + INTRA:          -8.355
REMARK INTER:                  -7.810
REMARK INTRA:                  -0.545
REMARK UNBOUND:                -0.401
REMARK SMILES O=C(Nc1ccc2c(c1)OC(F)(F)O2)Nc1ccc(Cl)c(C(F)(F)F)c1
REMARK SMILES IDX 20 1 16 2 21 3 26 4 17 5 19 6 18 7 22 8 23 9 24 10 25 11
REMARK SMILES IDX 15 12 2 13 1 15 3 16 4 18 9 19 5 20 8 21 6 22 10 23 7 24
REMARK SMILES IDX 11 25 14 26 12 27 13 28
REMARK H PARENT 15 14 3 17
REMARK Flexibility Score: inf
ROOT
ATOM      1  Cl  UNL     1      88.173   2.110   9.153  1.00  0.00    -0.084 Cl
ATOM      2  C   UNL     1      86.238   5.578  11.302  1.00  0.00     0.043 A 
ATOM      3  C   UNL     1      86.083   3.346  10.389  1.00  0.00     0.076 A 
ATOM      4  C   UNL     1      85.496   4.423  11.053  1.00  0.00     0.040 A 
ATOM      5  C   UNL     1      87.568   5.655  10.888  1.00  0.00     0.028 A 
ATOM      6  C   UNL     1      87.413   3.424   9.974  1.00  0.00     0.053 A 
ATOM      7  C   UNL     1      88.156   4.578  10.224  1.00  0.00     0.023 A 
ENDROOT
BRANCH   3   8
ATOM      8  C   UNL     1      85.255   2.127  10.142  1.00  0.00     0.417 C 
ATOM      9  F   UNL     1      85.750   1.023  10.771  1.00  0.00    -0.166 F 
ATOM     10  F   UNL     1      83.966   2.250  10.572  1.00  0.00    -0.166 F 
ATOM     11  F   UNL     1      85.163   1.790   8.823  1.00  0.00    -0.166 F 
ENDBRANCH   3   8
BRANCH   2  12
ATOM     12  N   UNL     1      85.642   6.670  11.975  1.00  0.00    -0.308 N 
ATOM     13  C   UNL     1      84.710   7.590  11.471  1.00  0.00     0.323 C 
ATOM     14  H   UNL     1      85.931   6.796  12.942  1.00  0.00     0.171 HD
ATOM     15  O   UNL     1      84.255   7.588  10.332  1.00  0.00    -0.248 OA
ATOM     16  N   UNL     1      84.367   8.530  12.474  1.00  0.00    -0.308 N 
ATOM     17  H   UNL     1      84.826   8.408  13.373  1.00  0.00     0.171 HD
BRANCH  16  18
ATOM     18  C   UNL     1      83.482   9.606  12.393  1.00  0.00     0.046 A 
ATOM     19  C   UNL     1      83.977  10.898  12.202  1.00  0.00     0.077 A 
ATOM     20  C   UNL     1      82.098   9.378  12.505  1.00  0.00     0.030 A 
ATOM     21  C   UNL     1      83.063  11.930  12.128  1.00  0.00     0.174 A 
ATOM     22  C   UNL     1      81.194  10.440  12.426  1.00  0.00     0.053 A 
ATOM     23  O   UNL     1      83.359  13.246  11.945  1.00  0.00    -0.395 OA
ATOM     24  C   UNL     1      81.708  11.706  12.237  1.00  0.00     0.172 A 
ATOM     25  C   UNL     1      82.039  13.809  11.956  1.00  0.00     0.586 C 
ATOM     26  O   UNL     1      80.984  12.855  12.137  1.00  0.00    -0.395 OA
ATOM     27  F   UNL     1      81.837  14.461  10.784  1.00  0.00    -0.125 F 
ATOM     28  F   UNL     1      81.968  14.728  12.952  1.00  0.00    -0.125 F 
ENDBRANCH  16  18
ENDBRANCH   2  12
TORSDOF 3
ENDMDL
MODEL 18
REMARK VINA RESULT:    -6.745      3.906      4.877
REMARK INTER + INTRA:          -8.328
REMARK INTER:                  -7.789
REMARK INTRA:                  -0.539
REMARK UNBOUND:                -0.401
REMARK SMILES O=C(Nc1ccc2c(c1)OC(F)(F)O2)Nc1ccc(Cl)c(C(F)(F)F)c1
REMARK SMILES IDX 20 1 16 2 21 3 26 4 17 5 19 6 18 7 22 8 23 9 24 10 25 11
REMARK SMILES IDX 15 12 2 13 1 15 3 16 4 18 9 19 5 20 8 21 6 22 10 23 7 24
REMARK SMILES IDX 11 25 14 26 12 27 13 28
REMARK H PARENT 15 14 3 17
REMARK Flexibility Score: inf
ROOT
ATOM      1  Cl  UNL     1      87.091   2.711  13.841  1.00  0.00    -0.084 Cl
ATOM      2  C   UNL     1      84.629   0.187  11.020  1.00  0.00     0.043 A 
ATOM      3  C   UNL     1      86.288   0.338  12.771  1.00  0.00     0.076 A 
ATOM      4  C   UNL     1      85.521  -0.432  11.896  1.00  0.00     0.040 A 
ATOM      5  C   UNL     1      84.503   1.577  11.021  1.00  0.00     0.028 A 
ATOM      6  C   UNL     1      86.161   1.727  12.771  1.00  0.00     0.053 A 
ATOM      7  C   UNL     1      85.269   2.347  11.896  1.00  0.00     0.023 A 
ENDROOT
BRANCH   3   8
ATOM      8  C   UNL     1      87.230  -0.364  13.693  1.00  0.00     0.417 C 
ATOM      9  F   UNL     1      87.025  -0.034  15.001  1.00  0.00    -0.166 F 
ATOM     10  F   UNL     1      87.136  -1.724  13.637  1.00  0.00    -0.166 F 
ATOM     11  F   UNL     1      88.543  -0.085  13.445  1.00  0.00    -0.166 F 
ENDBRANCH   3   8
BRANCH   2  12
ATOM     12  N   UNL     1      83.852  -0.593  10.132  1.00  0.00    -0.308 N 
ATOM     13  C   UNL     1      82.571  -1.127  10.345  1.00  0.00     0.323 C 
ATOM     14  H   UNL     1      84.283  -0.785   9.232  1.00  0.00     0.171 HD
ATOM     15  O   UNL     1      81.908  -0.994  11.368  1.00  0.00    -0.248 OA
ATOM     16  N   UNL     1      82.151  -1.847   9.200  1.00  0.00    -0.308 N 
ATOM     17  H   UNL     1      82.808  -1.872   8.424  1.00  0.00     0.171 HD
BRANCH  16  18
ATOM     18  C   UNL     1      80.952  -2.530   8.993  1.00  0.00     0.046 A 
ATOM     19  C   UNL     1      80.925  -3.925   9.074  1.00  0.00     0.077 A 
ATOM     20  C   UNL     1      79.781  -1.807   8.703  1.00  0.00     0.030 A 
ATOM     21  C   UNL     1      79.716  -4.555   8.861  1.00  0.00     0.174 A 
ATOM     22  C   UNL     1      78.569  -2.469   8.492  1.00  0.00     0.053 A 
ATOM     23  O   UNL     1      79.500  -5.899   8.901  1.00  0.00    -0.395 OA
ATOM     24  C   UNL     1      78.569  -3.846   8.578  1.00  0.00     0.172 A 
ATOM     25  C   UNL     1      78.096  -5.940   8.608  1.00  0.00     0.586 C 
ATOM     26  O   UNL     1      77.489  -4.657   8.404  1.00  0.00    -0.395 OA
ATOM     27  F   UNL     1      77.459  -6.562   9.633  1.00  0.00    -0.125 F 
ATOM     28  F   UNL     1      77.907  -6.692   7.495  1.00  0.00    -0.125 F 
ENDBRANCH  16  18
ENDBRANCH   2  12
TORSDOF 3
ENDMDL
MODEL 19
REMARK VINA RESULT:    -6.706      2.203      2.951
REMARK INTER + INTRA:          -8.283
REMARK INTER:                  -7.882
REMARK INTRA:                  -0.401
REMARK UNBOUND:                -0.401
REMARK SMILES O=C(Nc1ccc2c(c1)OC(F)(F)O2)Nc1ccc(Cl)c(C(F)(F)F)c1
REMARK SMILES IDX 20 1 16 2 21 3 26 4 17 5 19 6 18 7 22 8 23 9 24 10 25 11
REMARK SMILES IDX 15 12 2 13 1 15 3 16 4 18 9 19 5 20 8 21 6 22 10 23 7 24
REMARK SMILES IDX 11 25 14 26 12 27 13 28
REMARK H PARENT 15 14 3 17
REMARK Flexibility Score: inf
ROOT
ATOM      1  Cl  UNL     1      93.963  -1.233  14.634  1.00  0.00    -0.084 Cl
ATOM      2  C   UNL     1      89.597  -0.164  14.205  1.00  0.00     0.043 A 
ATOM      3  C   UNL     1      91.400  -1.735  13.857  1.00  0.00     0.076 A 
ATOM      4  C   UNL     1      90.053  -1.394  13.732  1.00  0.00     0.040 A 
ATOM      5  C   UNL     1      90.488   0.725  14.806  1.00  0.00     0.028 A 
ATOM      6  C   UNL     1      92.290  -0.845  14.458  1.00  0.00     0.053 A 
ATOM      7  C   UNL     1      91.835   0.385  14.933  1.00  0.00     0.023 A 
ENDROOT
BRANCH   3   8
ATOM      8  C   UNL     1      91.848  -3.062  13.338  1.00  0.00     0.417 C 
ATOM      9  F   UNL     1      90.805  -3.849  12.945  1.00  0.00    -0.166 F 
ATOM     10  F   UNL     1      92.671  -2.972  12.253  1.00  0.00    -0.166 F 
ATOM     11  F   UNL     1      92.541  -3.799  14.254  1.00  0.00    -0.166 F 
ENDBRANCH   3   8
BRANCH   2  12
ATOM     12  N   UNL     1      88.231   0.181  14.077  1.00  0.00    -0.308 N 
ATOM     13  C   UNL     1      87.495   0.369  12.896  1.00  0.00     0.323 C 
ATOM     14  H   UNL     1      87.729   0.306  14.952  1.00  0.00     0.171 HD
ATOM     15  O   UNL     1      87.939   0.259  11.758  1.00  0.00    -0.248 OA
ATOM     16  N   UNL     1      86.156   0.707  13.210  1.00  0.00    -0.308 N 
ATOM     17  H   UNL     1      85.931   0.762  14.200  1.00  0.00     0.171 HD
BRANCH  16  18
ATOM     18  C   UNL     1      85.099   0.975  12.339  1.00  0.00     0.046 A 
ATOM     19  C   UNL     1      83.996   0.118  12.302  1.00  0.00     0.077 A 
ATOM     20  C   UNL     1      85.154   2.107  11.505  1.00  0.00     0.030 A 
ATOM     21  C   UNL     1      82.976   0.425  11.426  1.00  0.00     0.174 A 
ATOM     22  C   UNL     1      84.108   2.395  10.627  1.00  0.00     0.053 A 
ATOM     23  O   UNL     1      81.830  -0.290  11.254  1.00  0.00    -0.395 OA
ATOM     24  C   UNL     1      83.030   1.534  10.610  1.00  0.00     0.172 A 
ATOM     25  C   UNL     1      81.186   0.498  10.242  1.00  0.00     0.586 C 
ATOM     26  O   UNL     1      81.925   1.653   9.823  1.00  0.00    -0.395 OA
ATOM     27  F   UNL     1      79.979   0.903  10.712  1.00  0.00    -0.125 F 
ATOM     28  F   UNL     1      80.960  -0.288   9.160  1.00  0.00    -0.125 F 
ENDBRANCH  16  18
ENDBRANCH   2  12
TORSDOF 3
ENDMDL
MODEL 20
REMARK VINA RESULT:    -6.696      1.762      2.219
REMARK INTER + INTRA:          -8.271
REMARK INTER:                  -7.811
REMARK INTRA:                  -0.460
REMARK UNBOUND:                -0.401
REMARK SMILES O=C(Nc1ccc2c(c1)OC(F)(F)O2)Nc1ccc(Cl)c(C(F)(F)F)c1
REMARK SMILES IDX 20 1 16 2 21 3 26 4 17 5 19 6 18 7 22 8 23 9 24 10 25 11
REMARK SMILES IDX 15 12 2 13 1 15 3 16 4 18 9 19 5 20 8 21 6 22 10 23 7 24
REMARK SMILES IDX 11 25 14 26 12 27 13 28
REMARK H PARENT 15 14 3 17
REMARK Flexibility Score: inf
ROOT
ATOM      1  Cl  UNL     1      91.734  -0.733  14.580  1.00  0.00    -0.084 Cl
ATOM      2  C   UNL     1      87.307  -0.450  13.737  1.00  0.00     0.043 A 
ATOM      3  C   UNL     1      89.404  -1.625  13.485  1.00  0.00     0.076 A 
ATOM      4  C   UNL     1      88.035  -1.527  13.232  1.00  0.00     0.040 A 
ATOM      5  C   UNL     1      87.947   0.530  14.495  1.00  0.00     0.028 A 
ATOM      6  C   UNL     1      90.043  -0.645  14.244  1.00  0.00     0.053 A 
ATOM      7  C   UNL     1      89.316   0.433  14.749  1.00  0.00     0.023 A 
ENDROOT
BRANCH   3   8
ATOM      8  C   UNL     1      90.147  -2.795  12.928  1.00  0.00     0.417 C 
ATOM      9  F   UNL     1      90.751  -3.541  13.897  1.00  0.00    -0.166 F 
ATOM     10  F   UNL     1      89.355  -3.662  12.234  1.00  0.00    -0.166 F 
ATOM     11  F   UNL     1      91.141  -2.444  12.060  1.00  0.00    -0.166 F 
ENDBRANCH   3   8
BRANCH   2  12
ATOM     12  N   UNL     1      85.919  -0.351  13.479  1.00  0.00    -0.308 N 
ATOM     13  C   UNL     1      85.276  -0.266  12.234  1.00  0.00     0.323 C 
ATOM     14  H   UNL     1      85.323  -0.343  14.302  1.00  0.00     0.171 HD
ATOM     15  O   UNL     1      85.838  -0.262  11.144  1.00  0.00    -0.248 OA
ATOM     16  N   UNL     1      83.874  -0.182  12.419  1.00  0.00    -0.308 N 
ATOM     17  H   UNL     1      83.551  -0.196  13.384  1.00  0.00     0.171 HD
BRANCH  16  18
ATOM     18  C   UNL     1      82.873  -0.083  11.453  1.00  0.00     0.046 A 
ATOM     19  C   UNL     1      82.489  -1.217  10.733  1.00  0.00     0.077 A 
ATOM     20  C   UNL     1      82.259   1.160  11.211  1.00  0.00     0.030 A 
ATOM     21  C   UNL     1      81.495  -1.070   9.788  1.00  0.00     0.174 A 
ATOM     22  C   UNL     1      81.254   1.282  10.248  1.00  0.00     0.053 A 
ATOM     23  O   UNL     1      80.993  -2.059   8.997  1.00  0.00    -0.395 OA
ATOM     24  C   UNL     1      80.893   0.147   9.552  1.00  0.00     0.172 A 
ATOM     25  C   UNL     1      80.021  -1.317   8.246  1.00  0.00     0.586 C 
ATOM     26  O   UNL     1      79.940   0.074   8.582  1.00  0.00    -0.395 OA
ATOM     27  F   UNL     1      78.802  -1.882   8.442  1.00  0.00    -0.125 F 
ATOM     28  F   UNL     1      80.315  -1.429   6.927  1.00  0.00    -0.125 F 
ENDBRANCH  16  18
ENDBRANCH   2  12
TORSDOF 3
ENDMDL
