MODEL 1
REMARK VINA RESULT:    -5.584      0.000      0.000
REMARK INTER + INTRA:          -7.807
REMARK INTER:                  -8.231
REMARK INTRA:                   0.424
REMARK UNBOUND:                 0.062
REMARK SMILES C=CCO[C]([O-])C1=CS[C@H]2[C@@H]([C@@H](C)O[C](C)[O-])C(=O)N12
REMARK SMILES IDX 9 1 19 2 20 3 11 4 10 5 18 6 7 7 8 8 12 9 13 10 14 11 15 12
REMARK SMILES IDX 17 13 16 14 5 15 6 16 4 17 3 18 2 19 1 20
REMARK H PARENT
REMARK Flexibility Score: inf
ROOT
ATOM      1  S   UNL     1       2.783  -5.538   1.263  1.00  0.00    -0.106 SA
ATOM      2  O   UNL     1       1.757  -1.172   1.764  1.00  0.00    -0.274 OA
ATOM      3  N   UNL     1       1.187  -3.448   1.494  1.00  0.00    -0.300 N 
ATOM      4  C   UNL     1       2.605  -3.244   3.003  1.00  0.00     0.095 C 
ATOM      5  C   UNL     1       1.840  -4.427   2.384  1.00  0.00     0.101 C 
ATOM      6  C   UNL     1       1.788  -2.350   2.039  1.00  0.00     0.236 C 
ATOM      7  C   UNL     1       1.238  -3.795   0.171  1.00  0.00     0.046 C 
ATOM      8  C   UNL     1       1.983  -4.865  -0.130  1.00  0.00    -0.006 C 
ENDROOT
BRANCH   4   9
ATOM      9  C   UNL     1       4.093  -3.242   2.746  1.00  0.00     0.068 C 
ATOM     10  C   UNL     1       4.546  -1.918   2.139  1.00  0.00    -0.038 C 
BRANCH   9  11
ATOM     11  O   UNL     1       4.788  -3.453   3.975  1.00  0.00    -0.387 OA
BRANCH  11  12
ATOM     12  C   UNL     1       5.121  -4.748   4.248  1.00  0.00     0.005 C 
ATOM     13  O   UNL     1       5.351  -5.626   3.427  1.00  0.00    -0.828 OA
ATOM     14  C   UNL     1       5.172  -4.954   5.731  1.00  0.00    -0.050 C 
ENDBRANCH  11  12
ENDBRANCH   9  11
ENDBRANCH   4   9
BRANCH   7  15
ATOM     15  C   UNL     1       0.581  -2.988  -0.848  1.00  0.00     0.057 C 
ATOM     16  O   UNL     1       1.179  -2.320  -1.683  1.00  0.00    -0.822 OA
BRANCH  15  17
ATOM     17  O   UNL     1      -0.766  -3.108  -0.707  1.00  0.00    -0.380 OA
BRANCH  17  18
ATOM     18  C   UNL     1      -1.502  -3.304  -1.918  1.00  0.00     0.064 C 
BRANCH  18  19
ATOM     19  C   UNL     1      -1.172  -4.651  -2.469  1.00  0.00    -0.066 C 
ATOM     20  C   UNL     1      -1.310  -4.987  -3.756  1.00  0.00    -0.101 C 
ENDBRANCH  18  19
ENDBRANCH  17  18
ENDBRANCH  15  17
ENDBRANCH   7  15
TORSDOF 7
ENDMDL
MODEL 2
REMARK VINA RESULT:    -5.425      4.528      6.256
REMARK INTER + INTRA:          -7.583
REMARK INTER:                  -7.821
REMARK INTRA:                   0.238
REMARK UNBOUND:                 0.062
REMARK SMILES C=CCO[C]([O-])C1=CS[C@H]2[C@@H]([C@@H](C)O[C](C)[O-])C(=O)N12
REMARK SMILES IDX 9 1 19 2 20 3 11 4 10 5 18 6 7 7 8 8 12 9 13 10 14 11 15 12
REMARK SMILES IDX 17 13 16 14 5 15 6 16 4 17 3 18 2 19 1 20
REMARK H PARENT
REMARK Flexibility Score: inf
ROOT
ATOM      1  S   UNL     1       5.941  -6.185   5.844  1.00  0.00    -0.106 SA
ATOM      2  O   UNL     1       4.011  -6.335   1.766  1.00  0.00    -0.274 OA
ATOM      3  N   UNL     1       5.454  -5.382   3.376  1.00  0.00    -0.300 N 
ATOM      4  C   UNL     1       5.787  -7.432   3.246  1.00  0.00     0.095 C 
ATOM      5  C   UNL     1       6.399  -6.282   4.065  1.00  0.00     0.101 C 
ATOM      6  C   UNL     1       4.909  -6.347   2.577  1.00  0.00     0.236 C 
ATOM      7  C   UNL     1       4.747  -4.578   4.228  1.00  0.00     0.046 C 
ATOM      8  C   UNL     1       4.901  -4.823   5.535  1.00  0.00    -0.006 C 
ENDROOT
BRANCH   4   9
ATOM      9  C   UNL     1       5.014  -8.449   4.053  1.00  0.00     0.068 C 
ATOM     10  C   UNL     1       3.994  -9.180   3.188  1.00  0.00    -0.038 C 
BRANCH   9  11
ATOM     11  O   UNL     1       5.921  -9.401   4.611  1.00  0.00    -0.387 OA
BRANCH  11  12
ATOM     12  C   UNL     1       5.561  -9.918   5.821  1.00  0.00     0.005 C 
ATOM     13  O   UNL     1       4.511 -10.491   6.082  1.00  0.00    -0.828 OA
ATOM     14  C   UNL     1       6.657  -9.684   6.816  1.00  0.00    -0.050 C 
ENDBRANCH  11  12
ENDBRANCH   9  11
ENDBRANCH   4   9
BRANCH   7  15
ATOM     15  C   UNL     1       3.822  -3.572   3.724  1.00  0.00     0.057 C 
ATOM     16  O   UNL     1       2.662  -3.807   3.407  1.00  0.00    -0.822 OA
BRANCH  15  17
ATOM     17  O   UNL     1       4.458  -2.371   3.674  1.00  0.00    -0.380 OA
BRANCH  17  18
ATOM     18  C   UNL     1       4.276  -1.622   2.468  1.00  0.00     0.064 C 
BRANCH  18  19
ATOM     19  C   UNL     1       3.319  -0.508   2.734  1.00  0.00    -0.066 C 
ATOM     20  C   UNL     1       3.642   0.616   3.383  1.00  0.00    -0.101 C 
ENDBRANCH  18  19
ENDBRANCH  17  18
ENDBRANCH  15  17
ENDBRANCH   7  15
TORSDOF 7
ENDMDL
MODEL 3
REMARK VINA RESULT:    -5.131      3.621      5.220
REMARK INTER + INTRA:          -7.169
REMARK INTER:                  -7.578
REMARK INTRA:                   0.409
REMARK UNBOUND:                 0.062
REMARK SMILES C=CCO[C]([O-])C1=CS[C@H]2[C@@H]([C@@H](C)O[C](C)[O-])C(=O)N12
REMARK SMILES IDX 9 1 19 2 20 3 11 4 10 5 18 6 7 7 8 8 12 9 13 10 14 11 15 12
REMARK SMILES IDX 17 13 16 14 5 15 6 16 4 17 3 18 2 19 1 20
REMARK H PARENT
REMARK Flexibility Score: inf
ROOT
ATOM      1  S   UNL     1       1.536  -4.918  -3.299  1.00  0.00    -0.106 SA
ATOM      2  O   UNL     1      -1.918  -2.442  -1.780  1.00  0.00    -0.274 OA
ATOM      3  N   UNL     1      -0.920  -3.948  -3.300  1.00  0.00    -0.300 N 
ATOM      4  C   UNL     1      -0.559  -4.566  -1.346  1.00  0.00     0.095 C 
ATOM      5  C   UNL     1      -0.206  -5.112  -2.741  1.00  0.00     0.101 C 
ATOM      6  C   UNL     1      -1.316  -3.442  -2.096  1.00  0.00     0.236 C 
ATOM      7  C   UNL     1      -0.197  -3.264  -4.239  1.00  0.00     0.046 C 
ATOM      8  C   UNL     1       1.076  -3.648  -4.399  1.00  0.00    -0.006 C 
ENDROOT
BRANCH   4   9
ATOM      9  C   UNL     1       0.619  -4.086  -0.532  1.00  0.00     0.068 C 
ATOM     10  C   UNL     1       0.163  -3.427   0.765  1.00  0.00    -0.038 C 
BRANCH   9  11
ATOM     11  O   UNL     1       1.463  -5.195  -0.219  1.00  0.00    -0.387 OA
BRANCH  11  12
ATOM     12  C   UNL     1       2.530  -4.915   0.584  1.00  0.00     0.005 C 
ATOM     13  O   UNL     1       3.191  -3.885   0.579  1.00  0.00    -0.828 OA
ATOM     14  C   UNL     1       2.789  -6.072   1.500  1.00  0.00    -0.050 C 
ENDBRANCH  11  12
ENDBRANCH   9  11
ENDBRANCH   4   9
BRANCH   7  15
ATOM     15  C   UNL     1      -0.768  -2.132  -4.955  1.00  0.00     0.057 C 
ATOM     16  O   UNL     1      -1.970  -1.962  -5.120  1.00  0.00    -0.822 OA
BRANCH  15  17
ATOM     17  O   UNL     1       0.240  -1.329  -5.390  1.00  0.00    -0.380 OA
BRANCH  17  18
ATOM     18  C   UNL     1       0.122  -0.855  -6.735  1.00  0.00     0.064 C 
BRANCH  18  19
ATOM     19  C   UNL     1       1.349  -0.080  -7.081  1.00  0.00    -0.066 C 
ATOM     20  C   UNL     1       2.461  -0.627  -7.584  1.00  0.00    -0.101 C 
ENDBRANCH  18  19
ENDBRANCH  17  18
ENDBRANCH  15  17
ENDBRANCH   7  15
TORSDOF 7
ENDMDL
MODEL 4
REMARK VINA RESULT:    -5.044      4.043      8.010
REMARK INTER + INTRA:          -7.046
REMARK INTER:                  -7.275
REMARK INTRA:                   0.228
REMARK UNBOUND:                 0.062
REMARK SMILES C=CCO[C]([O-])C1=CS[C@H]2[C@@H]([C@@H](C)O[C](C)[O-])C(=O)N12
REMARK SMILES IDX 9 1 19 2 20 3 11 4 10 5 18 6 7 7 8 8 12 9 13 10 14 11 15 12
REMARK SMILES IDX 17 13 16 14 5 15 6 16 4 17 3 18 2 19 1 20
REMARK H PARENT
REMARK Flexibility Score: inf
ROOT
ATOM      1  S   UNL     1       2.133  -3.232  -5.145  1.00  0.00    -0.106 SA
ATOM      2  O   UNL     1      -1.597  -2.352  -2.760  1.00  0.00    -0.274 OA
ATOM      3  N   UNL     1       0.738  -2.633  -2.985  1.00  0.00    -0.300 N 
ATOM      4  C   UNL     1       0.025  -1.377  -4.483  1.00  0.00     0.095 C 
ATOM      5  C   UNL     1       1.410  -1.915  -4.084  1.00  0.00     0.101 C 
ATOM      6  C   UNL     1      -0.510  -2.145  -3.249  1.00  0.00     0.236 C 
ATOM      7  C   UNL     1       1.063  -3.961  -2.921  1.00  0.00     0.046 C 
ATOM      8  C   UNL     1       1.805  -4.436  -3.929  1.00  0.00    -0.006 C 
ENDROOT
BRANCH   4   9
ATOM      9  C   UNL     1      -0.499  -1.882  -5.806  1.00  0.00     0.068 C 
ATOM     10  C   UNL     1      -1.981  -2.231  -5.716  1.00  0.00    -0.038 C 
BRANCH   9  11
ATOM     11  O   UNL     1      -0.317  -0.877  -6.804  1.00  0.00    -0.387 OA
BRANCH  11  12
ATOM     12  C   UNL     1       0.655  -1.132  -7.727  1.00  0.00     0.005 C 
ATOM     13  O   UNL     1       0.721  -2.113  -8.457  1.00  0.00    -0.828 OA
ATOM     14  C   UNL     1       1.656  -0.018  -7.728  1.00  0.00    -0.050 C 
ENDBRANCH  11  12
ENDBRANCH   9  11
ENDBRANCH   4   9
BRANCH   7  15
ATOM     15  C   UNL     1       0.555  -4.813  -1.856  1.00  0.00     0.057 C 
ATOM     16  O   UNL     1      -0.105  -5.828  -2.047  1.00  0.00    -0.822 OA
BRANCH  15  17
ATOM     17  O   UNL     1       0.933  -4.296  -0.656  1.00  0.00    -0.380 OA
BRANCH  17  18
ATOM     18  C   UNL     1      -0.114  -3.722   0.132  1.00  0.00     0.064 C 
BRANCH  18  19
ATOM     19  C   UNL     1       0.458  -3.262   1.431  1.00  0.00    -0.066 C 
ATOM     20  C   UNL     1       1.615  -3.705   1.936  1.00  0.00    -0.101 C 
ENDBRANCH  18  19
ENDBRANCH  17  18
ENDBRANCH  15  17
ENDBRANCH   7  15
TORSDOF 7
ENDMDL
MODEL 5
REMARK VINA RESULT:    -4.958     12.913     15.173
REMARK INTER + INTRA:          -6.925
REMARK INTER:                  -7.099
REMARK INTRA:                   0.174
REMARK UNBOUND:                 0.062
REMARK SMILES C=CCO[C]([O-])C1=CS[C@H]2[C@@H]([C@@H](C)O[C](C)[O-])C(=O)N12
REMARK SMILES IDX 9 1 19 2 20 3 11 4 10 5 18 6 7 7 8 8 12 9 13 10 14 11 15 12
REMARK SMILES IDX 17 13 16 14 5 15 6 16 4 17 3 18 2 19 1 20
REMARK H PARENT
REMARK Flexibility Score: inf
ROOT
ATOM      1  S   UNL     1      -4.593  -0.684 -10.316  1.00  0.00    -0.106 SA
ATOM      2  O   UNL     1      -6.754   3.277 -10.222  1.00  0.00    -0.274 OA
ATOM      3  N   UNL     1      -5.648   1.512 -11.334  1.00  0.00    -0.300 N 
ATOM      4  C   UNL     1      -7.083   0.746 -10.037  1.00  0.00     0.095 C 
ATOM      5  C   UNL     1      -6.078   0.134 -11.029  1.00  0.00     0.101 C 
ATOM      6  C   UNL     1      -6.556   2.121 -10.517  1.00  0.00     0.236 C 
ATOM      7  C   UNL     1      -4.292   1.687 -11.269  1.00  0.00     0.046 C 
ATOM      8  C   UNL     1      -3.585   0.651 -10.802  1.00  0.00    -0.006 C 
ENDROOT
BRANCH   4   9
ATOM      9  C   UNL     1      -6.808   0.446  -8.583  1.00  0.00     0.068 C 
ATOM     10  C   UNL     1      -7.284   1.583  -7.685  1.00  0.00    -0.038 C 
BRANCH   9  11
ATOM     11  O   UNL     1      -7.483  -0.756  -8.210  1.00  0.00    -0.387 OA
BRANCH  11  12
ATOM     12  C   UNL     1      -6.797  -1.578  -7.363  1.00  0.00     0.005 C 
ATOM     13  O   UNL     1      -5.792  -1.288  -6.727  1.00  0.00    -0.828 OA
ATOM     14  C   UNL     1      -7.462  -2.919  -7.314  1.00  0.00    -0.050 C 
ENDBRANCH  11  12
ENDBRANCH   9  11
ENDBRANCH   4   9
BRANCH   7  15
ATOM     15  C   UNL     1      -3.677   2.962 -11.613  1.00  0.00     0.057 C 
ATOM     16  O   UNL     1      -3.590   3.910 -10.842  1.00  0.00    -0.822 OA
BRANCH  15  17
ATOM     17  O   UNL     1      -3.235   2.907 -12.898  1.00  0.00    -0.380 OA
BRANCH  17  18
ATOM     18  C   UNL     1      -1.820   3.032 -13.073  1.00  0.00     0.064 C 
BRANCH  18  19
ATOM     19  C   UNL     1      -1.525   4.372 -13.662  1.00  0.00    -0.066 C 
ATOM     20  C   UNL     1      -0.331   4.728 -14.147  1.00  0.00    -0.101 C 
ENDBRANCH  18  19
ENDBRANCH  17  18
ENDBRANCH  15  17
ENDBRANCH   7  15
TORSDOF 7
ENDMDL
