MODEL 1
REMARK VINA RESULT:    -7.734      0.000      0.000
REMARK INTER + INTRA:         -18.277
REMARK INTER:                 -16.021
REMARK INTRA:                  -2.256
REMARK UNBOUND:                -4.214
WARNING: damped steplength 1.11772e-06 to 9.6758e-07
WARNING: damped steplength 0.0161973 to 0.00840273
REMARK  Name = BAL4850C
REMARK                            x       y       z     vdW  Elec       q    Type
REMARK                         _______ _______ _______ _____ _____    ______ ____
ROOT
ATOM      1  C   UNK A  3        5.096  -2.221  -5.703  0.00  0.00    +0.165 C 
ATOM      2  C   UNK A  3        5.878  -3.524  -6.075  0.00  0.00    +0.234 C 
ATOM      3  N   ALA A  4        7.079  -3.714  -5.421  0.00  0.00    -0.303 N 
ATOM      4  H   ALA A  4        7.316  -3.137  -4.620  0.00  0.00    +0.149 HD
ATOM      5  CA  ALA A  4        7.849  -4.947  -5.601  0.00  0.00    +0.156 C 
ATOM      6  CB  ALA A  4        7.292  -6.075  -4.747  0.00  0.00    +0.038 C 
ATOM      7  C   ALA A  4        9.320  -4.645  -5.252  0.00  0.00    +0.234 C 
ATOM      8  N   UNK A  5       10.079  -4.294  -6.348  0.00  0.00    -0.301 N 
ATOM      9  H   UNK A  5        9.625  -4.281  -7.247  0.00  0.00    +0.150 HD
ATOM     10  C   UNK A  5       11.454  -3.806  -6.263  0.00  0.00    +0.186 C 
ATOM     11  C   UNK A  5       11.602  -2.429  -5.593  0.00  0.00    +0.069 C 
ATOM     12  C   UNK A  5       10.948  -1.220  -6.239  0.00  0.00    -0.045 A 
ATOM     13  C   UNK A  5       11.589   0.019  -6.163  0.00  0.00    +0.007 A 
ATOM     14  C   UNK A  5       10.989   1.164  -6.692  0.00  0.00    +0.046 A 
ATOM     15  C   UNK A  5        9.733   1.081  -7.292  0.00  0.00    +0.120 A 
ATOM     16  C   UNK A  5        9.060  -0.139  -7.393  0.00  0.00    +0.000 A 
ATOM     17  C   UNK A  5        7.601  -0.225  -7.843  0.00  0.00    +0.059 C 
ATOM     18  C   UNK A  5        7.281  -1.135  -9.055  0.00  0.00    +0.195 C 
ATOM     19  C   UNK A  5        5.789  -0.884  -9.256  0.00  0.00    +0.163 C 
ATOM     20  O   UNK A  5        5.342  -0.293 -10.234  0.00  0.00    -0.295 OA
ATOM     21  C   UNK A  5        4.882  -1.433  -8.179  0.00  0.00    +0.083 C 
ATOM     22  C   UNK A  5        6.760  -0.530  -6.589  0.00  0.00    +0.017 C 
ATOM     23  C   UNK A  5        9.688  -1.274  -6.855  0.00  0.00    +0.011 A 
ATOM     24  O   ALA A  4        9.731  -4.558  -4.103  0.00  0.00    -0.274 OA
ATOM     25  O   UNK A  3        5.486  -4.321  -6.923  0.00  0.00    -0.274 OA
ATOM     26  C   UNK A  5        5.328  -1.077  -6.754  0.00  0.00    +0.026 C 
ENDROOT
BRANCH   1  28
ATOM     27  C   GLY A  2        2.915  -1.323  -5.015  0.00  0.00    +0.233 C 
ATOM     28  N   UNK A  3        3.661  -2.434  -5.387  0.00  0.00    -0.291 N 
ATOM     29  C   UNK A  3        3.144  -3.797  -5.377  0.00  0.00    +0.133 C 
ATOM     30  O   GLY A  2        3.359  -0.177  -5.150  0.00  0.00    -0.274 OA
BRANCH  27  31
ATOM     31  CA  GLY A  2        1.474  -1.506  -4.541  0.00  0.00    +0.200 C 
BRANCH  31  33
ATOM     32  C   ALA A  1        0.380  -2.638  -2.666  0.00  0.00    +0.233 C 
ATOM     33  N   GLY A  2        1.524  -2.213  -3.284  0.00  0.00    -0.305 N 
ATOM     34  H   GLY A  2        2.424  -2.567  -3.001  0.00  0.00    +0.149 HD
ATOM     35  O   ALA A  1       -0.730  -2.351  -3.127  0.00  0.00    -0.274 OA
BRANCH  32  36
ATOM     36  CA  ALA A  1        0.601  -3.619  -1.490  0.00  0.00    +0.156 C 
ATOM     37  CB  ALA A  1       -0.212  -4.894  -1.759  0.00  0.00    +0.038 C 
BRANCH  36  39
ATOM     38  C   UNK A  0        0.948  -2.679   0.940  0.00  0.00    +0.236 C 
ATOM     39  N   ALA A  1        0.249  -3.065  -0.169  0.00  0.00    -0.303 N 
ATOM     40  H   ALA A  1       -0.740  -2.871  -0.034  0.00  0.00    +0.149 HD
ATOM     41  O   UNK A  0        0.263  -2.233   1.868  0.00  0.00    -0.274 OA
BRANCH  38  42
ATOM     42  C   UNK A  0        2.486  -2.787   1.055  0.00  0.00    +0.187 C 
BRANCH  42  43
ATOM     43  N   UNK A  0        3.003  -3.987   1.771  0.00  0.00    -0.291 N 
ATOM     44  C   UNK A  0        3.381  -5.136   1.083  0.00  0.00    +0.213 C 
ATOM     45  C   UNK A  0        4.010  -6.253   1.881  0.00  0.00    +0.109 C 
ATOM     46  O   UNK A  0        3.231  -5.295  -0.127  0.00  0.00    -0.276 OA
ATOM     47  C   UNK A  0        3.136  -3.868   3.217  0.00  0.00    +0.133 C 
ENDBRANCH  42  43
BRANCH  42  48
ATOM     48  C   UNK A  0        3.016  -1.422   1.570  0.00  0.00    +0.187 C 
BRANCH  48  49
ATOM     49  O   UNK A  0        2.602  -0.374   0.690  0.00  0.00    -0.393 OA
ATOM     50  H   UNK A  0        3.059   0.434   0.992  0.00  0.00    +0.209 HD
ENDBRANCH  48  49
ENDBRANCH  42  48
ENDBRANCH  38  42
ENDBRANCH  36  39
ENDBRANCH  32  36
ENDBRANCH  31  33
ENDBRANCH  27  31
ENDBRANCH   1  28
BRANCH  10  51
ATOM     51  C   UNK A  5       12.136  -3.929  -7.633  0.00  0.00    +0.326 C 
ATOM     52  O   UNK A  5       13.191  -3.391  -7.885  0.00  0.00    -0.249 OA
BRANCH  51  53
ATOM     53  O   UNK A  5       11.584  -4.816  -8.516  0.00  0.00    -0.479 OA
ATOM     54  H   UNK A  5       11.800  -5.728  -8.410  0.00  0.00    +0.295 HD
ENDBRANCH  51  53
ENDBRANCH  10  51
BRANCH  15  55
ATOM     55  O   UNK A  5        9.118   2.214  -7.738  0.00  0.00    -0.506 OA
ATOM     56  H   UNK A  5        9.168   2.898  -7.049  0.00  0.00    +0.292 HD
ENDBRANCH  15  55
BRANCH  18  57
ATOM     57  O   UNK A  5        7.582  -2.532  -8.874  0.00  0.00    -0.337 OA
BRANCH  57  58
ATOM     58  C   UNK A  5        8.551  -3.005  -9.849  0.00  0.00    +0.282 C 
ATOM     59  O   UNK A  5        9.008  -4.316  -9.543  0.00  0.00    -0.343 OA
ATOM     60  C   UNK A  5        8.018  -5.340  -9.693  0.00  0.00    +0.149 C 
ATOM     61  C   UNK A  5        8.659  -6.641  -9.229  0.00  0.00    +0.041 C 
ATOM     62  C   UNK A  5        7.503  -5.424 -11.138  0.00  0.00    +0.174 C 
ATOM     63  C   UNK A  5        7.009  -4.044 -11.584  0.00  0.00    +0.179 C 
ATOM     64  C   UNK A  5        8.002  -2.912 -11.295  0.00  0.00    +0.201 C 
BRANCH  64  65
ATOM     65  O   UNK A  5        9.028  -2.980 -12.308  0.00  0.00    -0.384 OA
ATOM     66  H   UNK A  5        9.856  -2.640 -11.926  0.00  0.00    +0.210 HD
ENDBRANCH  64  65
BRANCH  63  67
ATOM     67  O   UNK A  5        6.698  -4.059 -12.984  0.00  0.00    -0.386 OA
ATOM     68  H   UNK A  5        6.674  -3.112 -13.242  0.00  0.00    +0.210 HD
ENDBRANCH  63  67
BRANCH  62  69
ATOM     69  O   UNK A  5        8.521  -5.901 -12.022  0.00  0.00    -0.387 OA
ATOM     70  H   UNK A  5        8.052  -6.365 -12.739  0.00  0.00    +0.210 HD
ENDBRANCH  62  69
ENDBRANCH  57  58
ENDBRANCH  18  57
TORSDOF 17
ENDMDL
MODEL 2
REMARK VINA RESULT:    -7.126      6.330     10.174
REMARK INTER + INTRA:         -17.173
REMARK INTER:                 -14.629
REMARK INTRA:                  -2.543
REMARK UNBOUND:                -4.214
WARNING: damped steplength 1.11772e-06 to 9.6758e-07
WARNING: damped steplength 0.0161973 to 0.00840273
REMARK  Name = BAL4850C
REMARK                            x       y       z     vdW  Elec       q    Type
REMARK                         _______ _______ _______ _____ _____    ______ ____
ROOT
ATOM      1  C   UNK A  3       -0.765  -2.602  -7.427  0.00  0.00    +0.165 C 
ATOM      2  C   UNK A  3        0.490  -3.390  -7.929  0.00  0.00    +0.234 C 
ATOM      3  N   ALA A  4        0.588  -4.701  -7.509  0.00  0.00    -0.303 N 
ATOM      4  H   ALA A  4       -0.209  -5.153  -7.071  0.00  0.00    +0.149 HD
ATOM      5  CA  ALA A  4        1.658  -5.572  -7.999  0.00  0.00    +0.156 C 
ATOM      6  CB  ALA A  4        1.333  -6.119  -9.381  0.00  0.00    +0.038 C 
ATOM      7  C   ALA A  4        1.857  -6.706  -6.974  0.00  0.00    +0.234 C 
ATOM      8  N   UNK A  5        2.835  -6.432  -6.042  0.00  0.00    -0.301 N 
ATOM      9  H   UNK A  5        3.324  -5.555  -6.120  0.00  0.00    +0.150 HD
ATOM     10  C   UNK A  5        3.102  -7.268  -4.873  0.00  0.00    +0.186 C 
ATOM     11  C   UNK A  5        1.972  -7.288  -3.830  0.00  0.00    +0.069 C 
ATOM     12  C   UNK A  5        1.591  -5.996  -3.129  0.00  0.00    -0.045 A 
ATOM     13  C   UNK A  5        1.187  -6.042  -1.793  0.00  0.00    +0.007 A 
ATOM     14  C   UNK A  5        0.772  -4.882  -1.134  0.00  0.00    +0.046 A 
ATOM     15  C   UNK A  5        0.746  -3.664  -1.813  0.00  0.00    +0.120 A 
ATOM     16  C   UNK A  5        1.146  -3.573  -3.148  0.00  0.00    +0.000 A 
ATOM     17  C   UNK A  5        0.922  -2.307  -3.977  0.00  0.00    +0.059 C 
ATOM     18  C   UNK A  5        2.162  -1.664  -4.646  0.00  0.00    +0.195 C 
ATOM     19  C   UNK A  5        1.567  -0.407  -5.275  0.00  0.00    +0.163 C 
ATOM     20  O   UNK A  5        1.833   0.723  -4.878  0.00  0.00    -0.295 OA
ATOM     21  C   UNK A  5        0.641  -0.638  -6.446  0.00  0.00    +0.083 C 
ATOM     22  C   UNK A  5       -0.233  -2.606  -4.951  0.00  0.00    +0.017 C 
ATOM     23  C   UNK A  5        1.561  -4.754  -3.784  0.00  0.00    +0.011 A 
ATOM     24  O   ALA A  4        1.110  -7.672  -6.890  0.00  0.00    -0.274 OA
ATOM     25  O   UNK A  3        1.367  -2.879  -8.621  0.00  0.00    -0.274 OA
ATOM     26  C   UNK A  5       -0.435  -1.702  -6.184  0.00  0.00    +0.026 C 
ENDROOT
BRANCH   1  28
ATOM     27  C   GLY A  2       -2.782  -2.309  -8.799  0.00  0.00    +0.233 C 
ATOM     28  N   UNK A  3       -1.500  -1.873  -8.491  0.00  0.00    -0.291 N 
ATOM     29  C   UNK A  3       -0.804  -0.822  -9.223  0.00  0.00    +0.133 C 
ATOM     30  O   GLY A  2       -3.375  -3.121  -8.079  0.00  0.00    -0.274 OA
BRANCH  27  31
ATOM     31  CA  GLY A  2       -3.527  -1.689  -9.980  0.00  0.00    +0.200 C 
BRANCH  31  33
ATOM     32  C   ALA A  1       -5.727  -0.860  -9.296  0.00  0.00    +0.233 C 
ATOM     33  N   GLY A  2       -4.383  -0.655  -9.451  0.00  0.00    -0.305 N 
ATOM     34  H   GLY A  2       -3.927   0.123  -9.002  0.00  0.00    +0.149 HD
ATOM     35  O   ALA A  1       -6.255  -1.908  -9.687  0.00  0.00    -0.274 OA
BRANCH  32  36
ATOM     36  CA  ALA A  1       -6.459   0.217  -8.461  0.00  0.00    +0.156 C 
ATOM     37  CB  ALA A  1       -6.356  -0.162  -6.977  0.00  0.00    +0.038 C 
BRANCH  36  39
ATOM     38  C   UNK A  0       -8.541   1.218  -9.714  0.00  0.00    +0.236 C 
ATOM     39  N   ALA A  1       -7.872   0.413  -8.836  0.00  0.00    -0.303 N 
ATOM     40  H   ALA A  1       -8.529  -0.217  -8.382  0.00  0.00    +0.149 HD
ATOM     41  O   UNK A  0       -9.768   1.061  -9.746  0.00  0.00    -0.274 OA
BRANCH  38  42
ATOM     42  C   UNK A  0       -7.841   2.265 -10.611  0.00  0.00    +0.187 C 
BRANCH  42  43
ATOM     43  N   UNK A  0       -6.907   1.723 -11.636  0.00  0.00    -0.291 N 
ATOM     44  C   UNK A  0       -7.359   0.918 -12.678  0.00  0.00    +0.213 C 
ATOM     45  C   UNK A  0       -6.359   0.520 -13.738  0.00  0.00    +0.109 C 
ATOM     46  O   UNK A  0       -8.515   0.513 -12.783  0.00  0.00    -0.276 OA
ATOM     47  C   UNK A  0       -5.511   2.124 -11.514  0.00  0.00    +0.133 C 
ENDBRANCH  42  43
BRANCH  42  48
ATOM     48  C   UNK A  0       -7.253   3.361  -9.684  0.00  0.00    +0.187 C 
BRANCH  48  49
ATOM     49  O   UNK A  0       -8.136   4.485  -9.634  0.00  0.00    -0.393 OA
ATOM     50  H   UNK A  0       -7.616   5.226  -9.269  0.00  0.00    +0.209 HD
ENDBRANCH  48  49
ENDBRANCH  42  48
ENDBRANCH  38  42
ENDBRANCH  36  39
ENDBRANCH  32  36
ENDBRANCH  31  33
ENDBRANCH  27  31
ENDBRANCH   1  28
BRANCH  10  51
ATOM     51  C   UNK A  5        4.492  -6.942  -4.306  0.00  0.00    +0.326 C 
ATOM     52  O   UNK A  5        5.274  -7.801  -3.968  0.00  0.00    -0.249 OA
BRANCH  51  53
ATOM     53  O   UNK A  5        4.881  -5.631  -4.353  0.00  0.00    -0.479 OA
ATOM     54  H   UNK A  5        4.214  -4.984  -4.516  0.00  0.00    +0.295 HD
ENDBRANCH  51  53
ENDBRANCH  10  51
BRANCH  15  55
ATOM     55  O   UNK A  5        0.267  -2.551  -1.188  0.00  0.00    -0.506 OA
ATOM     56  H   UNK A  5       -0.699  -2.618  -1.107  0.00  0.00    +0.292 HD
ENDBRANCH  15  55
BRANCH  18  57
ATOM     57  O   UNK A  5        2.842  -2.491  -5.609  0.00  0.00    -0.337 OA
BRANCH  57  58
ATOM     58  C   UNK A  5        4.254  -2.159  -5.703  0.00  0.00    +0.282 C 
ATOM     59  O   UNK A  5        5.029  -3.271  -6.131  0.00  0.00    -0.343 OA
ATOM     60  C   UNK A  5        4.798  -3.666  -7.489  0.00  0.00    +0.149 C 
ATOM     61  C   UNK A  5        5.632  -4.918  -7.729  0.00  0.00    +0.041 C 
ATOM     62  C   UNK A  5        5.141  -2.538  -8.473  0.00  0.00    +0.174 C 
ATOM     63  C   UNK A  5        4.376  -1.270  -8.082  0.00  0.00    +0.179 C 
ATOM     64  C   UNK A  5        4.493  -0.915  -6.595  0.00  0.00    +0.201 C 
BRANCH  64  65
ATOM     65  O   UNK A  5        5.789  -0.308  -6.406  0.00  0.00    -0.384 OA
ATOM     66  H   UNK A  5        6.435  -0.795  -6.947  0.00  0.00    +0.210 HD
ENDBRANCH  64  65
BRANCH  63  67
ATOM     67  O   UNK A  5        4.820  -0.159  -8.874  0.00  0.00    -0.386 OA
ATOM     68  H   UNK A  5        3.993   0.281  -9.168  0.00  0.00    +0.210 HD
ENDBRANCH  63  67
BRANCH  62  69
ATOM     69  O   UNK A  5        6.548  -2.285  -8.501  0.00  0.00    -0.387 OA
ATOM     70  H   UNK A  5        6.790  -2.235  -9.444  0.00  0.00    +0.210 HD
ENDBRANCH  62  69
ENDBRANCH  57  58
ENDBRANCH  18  57
TORSDOF 17
ENDMDL
MODEL 3
REMARK VINA RESULT:    -7.046      5.495      9.321
REMARK INTER + INTRA:         -17.027
REMARK INTER:                 -13.794
REMARK INTRA:                  -3.234
REMARK UNBOUND:                -4.214
WARNING: damped steplength 1.11772e-06 to 9.6758e-07
WARNING: damped steplength 0.0161973 to 0.00840273
REMARK  Name = BAL4850C
REMARK                            x       y       z     vdW  Elec       q    Type
REMARK                         _______ _______ _______ _____ _____    ______ ____
ROOT
ATOM      1  C   UNK A  3       -0.604  -2.541  -7.708  0.00  0.00    +0.165 C 
ATOM      2  C   UNK A  3        0.681  -3.353  -8.082  0.00  0.00    +0.234 C 
ATOM      3  N   ALA A  4        0.724  -4.656  -7.632  0.00  0.00    -0.303 N 
ATOM      4  H   ALA A  4       -0.115  -5.091  -7.260  0.00  0.00    +0.149 HD
ATOM      5  CA  ALA A  4        1.821  -5.549  -8.010  0.00  0.00    +0.156 C 
ATOM      6  CB  ALA A  4        1.614  -6.118  -9.405  0.00  0.00    +0.038 C 
ATOM      7  C   ALA A  4        1.913  -6.666  -6.952  0.00  0.00    +0.234 C 
ATOM      8  N   UNK A  5        2.807  -6.386  -5.940  0.00  0.00    -0.301 N 
ATOM      9  H   UNK A  5        3.313  -5.517  -5.989  0.00  0.00    +0.150 HD
ATOM     10  C   UNK A  5        2.958  -7.204  -4.738  0.00  0.00    +0.186 C 
ATOM     11  C   UNK A  5        1.739  -7.192  -3.801  0.00  0.00    +0.069 C 
ATOM     12  C   UNK A  5        1.314  -5.883  -3.159  0.00  0.00    -0.045 A 
ATOM     13  C   UNK A  5        0.792  -5.899  -1.863  0.00  0.00    +0.007 A 
ATOM     14  C   UNK A  5        0.335  -4.723  -1.265  0.00  0.00    +0.046 A 
ATOM     15  C   UNK A  5        0.385  -3.517  -1.964  0.00  0.00    +0.120 A 
ATOM     16  C   UNK A  5        0.905  -3.456  -3.259  0.00  0.00    +0.000 A 
ATOM     17  C   UNK A  5        0.772  -2.203  -4.126  0.00  0.00    +0.059 C 
ATOM     18  C   UNK A  5        2.075  -1.586  -4.692  0.00  0.00    +0.195 C 
ATOM     19  C   UNK A  5        1.556  -0.335  -5.394  0.00  0.00    +0.163 C 
ATOM     20  O   UNK A  5        1.800   0.800  -4.994  0.00  0.00    -0.295 OA
ATOM     21  C   UNK A  5        0.735  -0.576  -6.639  0.00  0.00    +0.083 C 
ATOM     22  C   UNK A  5       -0.295  -2.506  -5.195  0.00  0.00    +0.017 C 
ATOM     23  C   UNK A  5        1.359  -4.653  -3.835  0.00  0.00    +0.011 A 
ATOM     24  O   ALA A  4        1.149  -7.622  -6.918  0.00  0.00    -0.274 OA
ATOM     25  O   UNK A  3        1.623  -2.865  -8.702  0.00  0.00    -0.274 OA
ATOM     26  C   UNK A  5       -0.374  -1.622  -6.456  0.00  0.00    +0.026 C 
ENDROOT
BRANCH   1  28
ATOM     27  C   GLY A  2       -2.329  -2.418  -9.453  0.00  0.00    +0.233 C 
ATOM     28  N   UNK A  3       -1.231  -1.823  -8.846  0.00  0.00    -0.291 N 
ATOM     29  C   UNK A  3       -0.601  -0.601  -9.331  0.00  0.00    +0.133 C 
ATOM     30  O   GLY A  2       -2.899  -3.387  -8.939  0.00  0.00    -0.274 OA
BRANCH  27  31
ATOM     31  CA  GLY A  2       -2.923  -1.796 -10.715  0.00  0.00    +0.200 C 
BRANCH  31  33
ATOM     32  C   ALA A  1       -4.430   0.085 -10.287  0.00  0.00    +0.233 C 
ATOM     33  N   GLY A  2       -4.218  -1.264 -10.362  0.00  0.00    -0.305 N 
ATOM     34  H   GLY A  2       -4.993  -1.906 -10.391  0.00  0.00    +0.149 HD
ATOM     35  O   ALA A  1       -3.496   0.881 -10.437  0.00  0.00    -0.274 OA
BRANCH  32  36
ATOM     36  CA  ALA A  1       -5.916   0.505 -10.181  0.00  0.00    +0.156 C 
ATOM     37  CB  ALA A  1       -6.113   1.805 -10.975  0.00  0.00    +0.038 C 
BRANCH  36  39
ATOM     38  C   UNK A  0       -6.514  -0.125  -7.701  0.00  0.00    +0.236 C 
ATOM     39  N   ALA A  1       -6.396   0.681  -8.798  0.00  0.00    -0.303 N 
ATOM     40  H   ALA A  1       -6.671   1.630  -8.555  0.00  0.00    +0.149 HD
ATOM     41  O   UNK A  0       -6.960   0.424  -6.686  0.00  0.00    -0.274 OA
BRANCH  38  42
ATOM     42  C   UNK A  0       -6.132  -1.624  -7.702  0.00  0.00    +0.187 C 
BRANCH  42  43
ATOM     43  N   UNK A  0       -7.268  -2.585  -7.643  0.00  0.00    -0.291 N 
ATOM     44  C   UNK A  0       -8.200  -2.672  -8.672  0.00  0.00    +0.213 C 
ATOM     45  C   UNK A  0       -9.242  -3.762  -8.581  0.00  0.00    +0.109 C 
ATOM     46  O   UNK A  0       -8.227  -1.918  -9.643  0.00  0.00    -0.276 OA
ATOM     47  C   UNK A  0       -7.315  -3.457  -6.476  0.00  0.00    +0.133 C 
ENDBRANCH  42  43
BRANCH  42  48
ATOM     48  C   UNK A  0       -5.027  -1.828  -6.632  0.00  0.00    +0.187 C 
BRANCH  48  49
ATOM     49  O   UNK A  0       -4.124  -0.719  -6.644  0.00  0.00    -0.393 OA
ATOM     50  H   UNK A  0       -3.282  -1.047  -6.276  0.00  0.00    +0.209 HD
ENDBRANCH  48  49
ENDBRANCH  42  48
ENDBRANCH  38  42
ENDBRANCH  36  39
ENDBRANCH  32  36
ENDBRANCH  31  33
ENDBRANCH  27  31
ENDBRANCH   1  28
BRANCH  10  51
ATOM     51  C   UNK A  5        4.295  -6.884  -4.054  0.00  0.00    +0.326 C 
ATOM     52  O   UNK A  5        4.995  -7.740  -3.561  0.00  0.00    -0.249 OA
BRANCH  51  53
ATOM     53  O   UNK A  5        4.752  -5.599  -4.171  0.00  0.00    -0.479 OA
ATOM     54  H   UNK A  5        4.109  -4.910  -4.210  0.00  0.00    +0.295 HD
ENDBRANCH  51  53
ENDBRANCH  10  51
BRANCH  15  55
ATOM     55  O   UNK A  5       -0.133  -2.387  -1.404  0.00  0.00    -0.506 OA
ATOM     56  H   UNK A  5        0.483  -1.649  -1.542  0.00  0.00    +0.292 HD
ENDBRANCH  15  55
BRANCH  18  57
ATOM     57  O   UNK A  5        2.828  -2.439  -5.576  0.00  0.00    -0.337 OA
BRANCH  57  58
ATOM     58  C   UNK A  5        4.232  -2.064  -5.620  0.00  0.00    +0.282 C 
ATOM     59  O   UNK A  5        5.061  -3.170  -5.954  0.00  0.00    -0.343 OA
ATOM     60  C   UNK A  5        4.910  -3.640  -7.299  0.00  0.00    +0.149 C 
ATOM     61  C   UNK A  5        5.793  -4.873  -7.434  0.00  0.00    +0.041 C 
ATOM     62  C   UNK A  5        5.265  -2.551  -8.322  0.00  0.00    +0.174 C 
ATOM     63  C   UNK A  5        4.442  -1.291  -8.033  0.00  0.00    +0.179 C 
ATOM     64  C   UNK A  5        4.476  -0.860  -6.563  0.00  0.00    +0.201 C 
BRANCH  64  65
ATOM     65  O   UNK A  5        5.741  -0.201  -6.344  0.00  0.00    -0.384 OA
ATOM     66  H   UNK A  5        5.821   0.527  -6.985  0.00  0.00    +0.210 HD
ENDBRANCH  64  65
BRANCH  63  67
ATOM     67  O   UNK A  5        4.891  -0.207  -8.859  0.00  0.00    -0.386 OA
ATOM     68  H   UNK A  5        5.286   0.435  -8.230  0.00  0.00    +0.210 HD
ENDBRANCH  63  67
BRANCH  62  69
ATOM     69  O   UNK A  5        6.663  -2.253  -8.296  0.00  0.00    -0.387 OA
ATOM     70  H   UNK A  5        7.105  -3.018  -8.708  0.00  0.00    +0.210 HD
ENDBRANCH  62  69
ENDBRANCH  57  58
ENDBRANCH  18  57
TORSDOF 17
ENDMDL
MODEL 4
REMARK VINA RESULT:    -7.035      6.420     10.383
REMARK INTER + INTRA:         -17.006
REMARK INTER:                 -14.106
REMARK INTRA:                  -2.900
REMARK UNBOUND:                -4.214
WARNING: damped steplength 1.11772e-06 to 9.6758e-07
WARNING: damped steplength 0.0161973 to 0.00840273
REMARK  Name = BAL4850C
REMARK                            x       y       z     vdW  Elec       q    Type
REMARK                         _______ _______ _______ _____ _____    ______ ____
ROOT
ATOM      1  C   UNK A  3       -1.352  -2.575  -6.748  0.00  0.00    +0.165 C 
ATOM      2  C   UNK A  3       -0.287  -3.475  -7.458  0.00  0.00    +0.234 C 
ATOM      3  N   ALA A  4       -0.243  -4.793  -7.054  0.00  0.00    -0.303 N 
ATOM      4  H   ALA A  4       -0.990  -5.172  -6.478  0.00  0.00    +0.149 HD
ATOM      5  CA  ALA A  4        0.634  -5.758  -7.719  0.00  0.00    +0.156 C 
ATOM      6  CB  ALA A  4        0.020  -6.257  -9.018  0.00  0.00    +0.038 C 
ATOM      7  C   ALA A  4        0.901  -6.917  -6.738  0.00  0.00    +0.234 C 
ATOM      8  N   UNK A  5        2.051  -6.748  -5.995  0.00  0.00    -0.301 N 
ATOM      9  H   UNK A  5        2.600  -5.921  -6.164  0.00  0.00    +0.150 HD
ATOM     10  C   UNK A  5        2.438  -7.618  -4.887  0.00  0.00    +0.186 C 
ATOM     11  C   UNK A  5        1.513  -7.540  -3.660  0.00  0.00    +0.069 C 
ATOM     12  C   UNK A  5        1.389  -6.225  -2.912  0.00  0.00    -0.045 A 
ATOM     13  C   UNK A  5        1.225  -6.246  -1.524  0.00  0.00    +0.007 A 
ATOM     14  C   UNK A  5        1.046  -5.058  -0.811  0.00  0.00    +0.046 A 
ATOM     15  C   UNK A  5        1.018  -3.836  -1.482  0.00  0.00    +0.120 A 
ATOM     16  C   UNK A  5        1.183  -3.770  -2.868  0.00  0.00    +0.000 A 
ATOM     17  C   UNK A  5        0.939  -2.480  -3.652  0.00  0.00    +0.059 C 
ATOM     18  C   UNK A  5        2.098  -1.952  -4.534  0.00  0.00    +0.195 C 
ATOM     19  C   UNK A  5        1.525  -0.638  -5.057  0.00  0.00    +0.163 C 
ATOM     20  O   UNK A  5        1.964   0.458  -4.720  0.00  0.00    -0.295 OA
ATOM     21  C   UNK A  5        0.388  -0.766  -6.044  0.00  0.00    +0.083 C 
ATOM     22  C   UNK A  5       -0.394  -2.656  -4.405  0.00  0.00    +0.017 C 
ATOM     23  C   UNK A  5        1.363  -4.979  -3.559  0.00  0.00    +0.011 A 
ATOM     24  O   ALA A  4        0.092  -7.808  -6.517  0.00  0.00    -0.274 OA
ATOM     25  O   UNK A  3        0.500  -3.044  -8.298  0.00  0.00    -0.274 OA
ATOM     26  C   UNK A  5       -0.721  -1.724  -5.588  0.00  0.00    +0.026 C 
ENDROOT
BRANCH   1  28
ATOM     27  C   GLY A  2       -3.453  -1.398  -7.230  0.00  0.00    +0.233 C 
ATOM     28  N   UNK A  3       -2.189  -1.768  -7.670  0.00  0.00    -0.291 N 
ATOM     29  C   UNK A  3       -1.689  -1.502  -9.013  0.00  0.00    +0.133 C 
ATOM     30  O   GLY A  2       -3.790  -1.541  -6.049  0.00  0.00    -0.274 OA
BRANCH  27  31
ATOM     31  CA  GLY A  2       -4.410  -0.692  -8.190  0.00  0.00    +0.200 C 
BRANCH  31  33
ATOM     32  C   ALA A  1       -6.688  -1.521  -7.852  0.00  0.00    +0.233 C 
ATOM     33  N   GLY A  2       -5.479  -1.616  -8.484  0.00  0.00    -0.305 N 
ATOM     34  H   GLY A  2       -5.374  -2.177  -9.314  0.00  0.00    +0.149 HD
ATOM     35  O   ALA A  1       -6.867  -0.694  -6.951  0.00  0.00    -0.274 OA
BRANCH  32  36
ATOM     36  CA  ALA A  1       -7.815  -2.385  -8.469  0.00  0.00    +0.156 C 
ATOM     37  CB  ALA A  1       -7.207  -3.263  -9.573  0.00  0.00    +0.038 C 
BRANCH  36  39
ATOM     38  C   UNK A  0       -9.088  -0.623  -9.946  0.00  0.00    +0.236 C 
ATOM     39  N   ALA A  1       -8.945  -1.606  -9.008  0.00  0.00    -0.303 N 
ATOM     40  H   ALA A  1       -9.859  -1.870  -8.647  0.00  0.00    +0.149 HD
ATOM     41  O   UNK A  0      -10.247  -0.231 -10.129  0.00  0.00    -0.274 OA
BRANCH  38  42
ATOM     42  C   UNK A  0       -7.902  -0.021 -10.734  0.00  0.00    +0.187 C 
BRANCH  42  43
ATOM     43  N   UNK A  0       -7.858   1.466 -10.810  0.00  0.00    -0.291 N 
ATOM     44  C   UNK A  0       -7.718   2.247  -9.667  0.00  0.00    +0.213 C 
ATOM     45  C   UNK A  0       -7.557   3.738  -9.856  0.00  0.00    +0.109 C 
ATOM     46  O   UNK A  0       -7.720   1.800  -8.522  0.00  0.00    -0.276 OA
ATOM     47  C   UNK A  0       -7.919   2.046 -12.145  0.00  0.00    +0.133 C 
ENDBRANCH  42  43
BRANCH  42  48
ATOM     48  C   UNK A  0       -7.816  -0.763 -12.094  0.00  0.00    +0.187 C 
BRANCH  48  49
ATOM     49  O   UNK A  0       -8.963  -1.599 -12.268  0.00  0.00    -0.393 OA
ATOM     50  H   UNK A  0       -8.633  -2.447 -12.622  0.00  0.00    +0.209 HD
ENDBRANCH  48  49
ENDBRANCH  42  48
ENDBRANCH  38  42
ENDBRANCH  36  39
ENDBRANCH  32  36
ENDBRANCH  31  33
ENDBRANCH  27  31
ENDBRANCH   1  28
BRANCH  10  51
ATOM     51  C   UNK A  5        3.931  -7.433  -4.576  0.00  0.00    +0.326 C 
ATOM     52  O   UNK A  5        4.441  -7.855  -3.563  0.00  0.00    -0.249 OA
BRANCH  51  53
ATOM     53  O   UNK A  5        4.705  -6.912  -5.577  0.00  0.00    -0.479 OA
ATOM     54  H   UNK A  5        4.968  -7.494  -6.272  0.00  0.00    +0.295 HD
ENDBRANCH  51  53
ENDBRANCH  10  51
BRANCH  15  55
ATOM     55  O   UNK A  5        0.766  -2.689  -0.790  0.00  0.00    -0.506 OA
ATOM     56  H   UNK A  5       -0.193  -2.542  -0.749  0.00  0.00    +0.292 HD
ENDBRANCH  15  55
BRANCH  18  57
ATOM     57  O   UNK A  5        2.514  -2.831  -5.597  0.00  0.00    -0.337 OA
BRANCH  57  58
ATOM     58  C   UNK A  5        3.915  -3.198  -5.474  0.00  0.00    +0.282 C 
ATOM     59  O   UNK A  5        4.274  -4.215  -6.401  0.00  0.00    -0.343 OA
ATOM     60  C   UNK A  5        4.270  -3.797  -7.771  0.00  0.00    +0.149 C 
ATOM     61  C   UNK A  5        4.578  -5.031  -8.607  0.00  0.00    +0.041 C 
ATOM     62  C   UNK A  5        5.270  -2.657  -8.019  0.00  0.00    +0.174 C 
ATOM     63  C   UNK A  5        4.989  -1.510  -7.042  0.00  0.00    +0.179 C 
ATOM     64  C   UNK A  5        4.845  -1.965  -5.586  0.00  0.00    +0.201 C 
BRANCH  64  65
ATOM     65  O   UNK A  5        6.177  -2.197  -5.081  0.00  0.00    -0.384 OA
ATOM     66  H   UNK A  5        6.749  -2.440  -5.830  0.00  0.00    +0.210 HD
ENDBRANCH  64  65
BRANCH  63  67
ATOM     67  O   UNK A  5        6.022  -0.519  -7.133  0.00  0.00    -0.386 OA
ATOM     68  H   UNK A  5        6.724  -0.838  -6.525  0.00  0.00    +0.210 HD
ENDBRANCH  63  67
BRANCH  62  69
ATOM     69  O   UNK A  5        6.618  -3.114  -7.880  0.00  0.00    -0.387 OA
ATOM     70  H   UNK A  5        6.584  -4.080  -7.999  0.00  0.00    +0.210 HD
ENDBRANCH  62  69
ENDBRANCH  57  58
ENDBRANCH  18  57
TORSDOF 17
ENDMDL
MODEL 5
REMARK VINA RESULT:    -7.022      3.986     10.605
REMARK INTER + INTRA:         -16.982
REMARK INTER:                 -14.097
REMARK INTRA:                  -2.886
REMARK UNBOUND:                -4.214
WARNING: damped steplength 1.11772e-06 to 9.6758e-07
WARNING: damped steplength 0.0161973 to 0.00840273
REMARK  Name = BAL4850C
REMARK                            x       y       z     vdW  Elec       q    Type
REMARK                         _______ _______ _______ _____ _____    ______ ____
ROOT
ATOM      1  C   UNK A  3        5.212  -2.430  -7.280  0.00  0.00    +0.165 C 
ATOM      2  C   UNK A  3        4.728  -3.718  -6.535  0.00  0.00    +0.234 C 
ATOM      3  N   ALA A  4        4.107  -4.671  -7.316  0.00  0.00    -0.303 N 
ATOM      4  H   ALA A  4        4.152  -4.603  -8.329  0.00  0.00    +0.149 HD
ATOM      5  CA  ALA A  4        3.709  -5.964  -6.756  0.00  0.00    +0.156 C 
ATOM      6  CB  ALA A  4        4.893  -6.916  -6.671  0.00  0.00    +0.038 C 
ATOM      7  C   ALA A  4        2.583  -6.540  -7.638  0.00  0.00    +0.234 C 
ATOM      8  N   UNK A  5        1.320  -6.224  -7.183  0.00  0.00    -0.301 N 
ATOM      9  H   UNK A  5        1.249  -5.680  -6.339  0.00  0.00    +0.150 HD
ATOM     10  C   UNK A  5        0.094  -6.510  -7.925  0.00  0.00    +0.186 C 
ATOM     11  C   UNK A  5       -0.065  -5.708  -9.227  0.00  0.00    +0.069 C 
ATOM     12  C   UNK A  5       -0.165  -4.194  -9.156  0.00  0.00    -0.045 A 
ATOM     13  C   UNK A  5       -0.989  -3.524 -10.063  0.00  0.00    +0.007 A 
ATOM     14  C   UNK A  5       -1.058  -2.129 -10.066  0.00  0.00    +0.046 A 
ATOM     15  C   UNK A  5       -0.292  -1.389  -9.165  0.00  0.00    +0.120 A 
ATOM     16  C   UNK A  5        0.541  -2.020  -8.238  0.00  0.00    +0.000 A 
ATOM     17  C   UNK A  5        1.550  -1.241  -7.393  0.00  0.00    +0.059 C 
ATOM     18  C   UNK A  5        1.460  -1.392  -5.855  0.00  0.00    +0.195 C 
ATOM     19  C   UNK A  5        2.529  -0.414  -5.376  0.00  0.00    +0.163 C 
ATOM     20  O   UNK A  5        2.259   0.622  -4.776  0.00  0.00    -0.295 OA
ATOM     21  C   UNK A  5        3.957  -0.812  -5.666  0.00  0.00    +0.083 C 
ATOM     22  C   UNK A  5        2.946  -1.537  -7.973  0.00  0.00    +0.017 C 
ATOM     23  C   UNK A  5        0.589  -3.423  -8.256  0.00  0.00    +0.011 A 
ATOM     24  O   ALA A  4        2.786  -7.073  -8.721  0.00  0.00    -0.274 OA
ATOM     25  O   UNK A  3        4.847  -3.874  -5.322  0.00  0.00    -0.274 OA
ATOM     26  C   UNK A  5        4.196  -1.244  -7.120  0.00  0.00    +0.026 C 
ENDROOT
BRANCH   1  28
ATOM     27  C   GLY A  2        7.387  -1.579  -8.042  0.00  0.00    +0.233 C 
ATOM     28  N   UNK A  3        6.613  -2.038  -6.984  0.00  0.00    -0.291 N 
ATOM     29  C   UNK A  3        7.128  -2.255  -5.638  0.00  0.00    +0.133 C 
ATOM     30  O   GLY A  2        6.880  -1.300  -9.135  0.00  0.00    -0.274 OA
BRANCH  27  31
ATOM     31  CA  GLY A  2        8.873  -1.299  -7.824  0.00  0.00    +0.200 C 
BRANCH  31  33
ATOM     32  C   ALA A  1       10.087   0.568  -6.808  0.00  0.00    +0.233 C 
ATOM     33  N   GLY A  2        8.999   0.100  -7.492  0.00  0.00    -0.305 N 
ATOM     34  H   GLY A  2        8.379   0.735  -7.968  0.00  0.00    +0.149 HD
ATOM     35  O   ALA A  1       10.948  -0.210  -6.382  0.00  0.00    -0.274 OA
BRANCH  32  36
ATOM     36  CA  ALA A  1       10.224   2.110  -6.777  0.00  0.00    +0.156 C 
ATOM     37  CB  ALA A  1       10.828   2.573  -8.111  0.00  0.00    +0.038 C 
BRANCH  36  39
ATOM     38  C   UNK A  0       11.242   3.847  -5.088  0.00  0.00    +0.236 C 
ATOM     39  N   ALA A  1       11.030   2.621  -5.653  0.00  0.00    -0.303 N 
ATOM     40  H   ALA A  1       11.525   1.909  -5.120  0.00  0.00    +0.149 HD
ATOM     41  O   UNK A  0       12.001   3.855  -4.112  0.00  0.00    -0.274 OA
BRANCH  38  42
ATOM     42  C   UNK A  0       10.597   5.149  -5.616  0.00  0.00    +0.187 C 
BRANCH  42  43
ATOM     43  N   UNK A  0       11.483   6.345  -5.656  0.00  0.00    -0.291 N 
ATOM     44  C   UNK A  0       12.417   6.523  -6.672  0.00  0.00    +0.213 C 
ATOM     45  C   UNK A  0       13.182   7.826  -6.697  0.00  0.00    +0.109 C 
ATOM     46  O   UNK A  0       12.656   5.688  -7.542  0.00  0.00    -0.276 OA
ATOM     47  C   UNK A  0       11.281   7.334  -4.605  0.00  0.00    +0.133 C 
ENDBRANCH  42  43
BRANCH  42  48
ATOM     48  C   UNK A  0        9.248   5.341  -4.872  0.00  0.00    +0.187 C 
BRANCH  48  49
ATOM     49  O   UNK A  0        9.209   4.510  -3.710  0.00  0.00    -0.393 OA
ATOM     50  H   UNK A  0        9.665   3.681  -3.949  0.00  0.00    +0.209 HD
ENDBRANCH  48  49
ENDBRANCH  42  48
ENDBRANCH  38  42
ENDBRANCH  36  39
ENDBRANCH  32  36
ENDBRANCH  31  33
ENDBRANCH  27  31
ENDBRANCH   1  28
BRANCH  10  51
ATOM     51  C   UNK A  5       -1.114  -6.443  -6.979  0.00  0.00    +0.326 C 
ATOM     52  O   UNK A  5       -2.184  -5.992  -7.322  0.00  0.00    -0.249 OA
BRANCH  51  53
ATOM     53  O   UNK A  5       -0.984  -7.072  -5.772  0.00  0.00    -0.479 OA
ATOM     54  H   UNK A  5       -0.640  -6.568  -5.052  0.00  0.00    +0.295 HD
ENDBRANCH  51  53
ENDBRANCH  10  51
BRANCH  15  55
ATOM     55  O   UNK A  5       -0.305  -0.027  -9.224  0.00  0.00    -0.506 OA
ATOM     56  H   UNK A  5        0.585   0.294  -9.444  0.00  0.00    +0.292 HD
ENDBRANCH  15  55
BRANCH  18  57
ATOM     57  O   UNK A  5        1.672  -2.726  -5.352  0.00  0.00    -0.337 OA
BRANCH  57  58
ATOM     58  C   UNK A  5        0.442  -3.314  -4.850  0.00  0.00    +0.282 C 
ATOM     59  O   UNK A  5        0.567  -4.718  -4.666  0.00  0.00    -0.343 OA
ATOM     60  C   UNK A  5        1.451  -5.100  -3.604  0.00  0.00    +0.149 C 
ATOM     61  C   UNK A  5        1.532  -6.620  -3.628  0.00  0.00    +0.041 C 
ATOM     62  C   UNK A  5        0.974  -4.560  -2.248  0.00  0.00    +0.174 C 
ATOM     63  C   UNK A  5        0.775  -3.044  -2.344  0.00  0.00    +0.179 C 
ATOM     64  C   UNK A  5       -0.048  -2.608  -3.561  0.00  0.00    +0.201 C 
BRANCH  64  65
ATOM     65  O   UNK A  5       -1.434  -2.867  -3.250  0.00  0.00    -0.384 OA
ATOM     66  H   UNK A  5       -1.883  -3.141  -4.069  0.00  0.00    +0.210 HD
ENDBRANCH  64  65
BRANCH  63  67
ATOM     67  O   UNK A  5        0.157  -2.549  -1.147  0.00  0.00    -0.386 OA
ATOM     68  H   UNK A  5       -0.245  -1.694  -1.413  0.00  0.00    +0.210 HD
ENDBRANCH  63  67
BRANCH  62  69
ATOM     69  O   UNK A  5       -0.237  -5.199  -1.834  0.00  0.00    -0.387 OA
ATOM     70  H   UNK A  5       -0.957  -4.708  -2.271  0.00  0.00    +0.210 HD
ENDBRANCH  62  69
ENDBRANCH  57  58
ENDBRANCH  18  57
TORSDOF 17
ENDMDL
