WARNING: damped steplength 1.11772e-06 to 9.6758e-07
WARNING: damped steplength 0.0161973 to 0.00840273
REMARK  Name = BAL4850C
REMARK                            x       y       z     vdW  Elec       q    Type
REMARK                         _______ _______ _______ _____ _____    ______ ____
ROOT
ATOM      1  C   UNK A  3       -4.247  -7.849  -6.057  0.00  0.00    +0.165 C 
ATOM      2  C   UNK A  3       -5.592  -7.285  -6.624  0.00  0.00    +0.234 C 
ATOM      3  N   ALA A  4       -6.671  -7.317  -5.764  0.00  0.00    -0.303 N 
ATOM      4  H   ALA A  4       -6.527  -7.515  -4.778  0.00  0.00    +0.149 HD
ATOM      5  CA  ALA A  4       -7.954  -6.719  -6.140  0.00  0.00    +0.156 C 
ATOM      6  CB  ALA A  4       -7.938  -5.211  -5.940  0.00  0.00    +0.038 C 
ATOM      7  C   ALA A  4       -9.057  -7.390  -5.298  0.00  0.00    +0.234 C 
ATOM      8  N   UNK A  5       -9.647  -8.465  -5.930  0.00  0.00    -0.301 N 
ATOM      9  H   UNK A  5       -9.326  -8.697  -6.855  0.00  0.00    +0.150 HD
ATOM     10  C   UNK A  5      -10.600  -9.365  -5.284  0.00  0.00    +0.186 C 
ATOM     11  C   UNK A  5      -10.003 -10.225  -4.158  0.00  0.00    +0.069 C 
ATOM     12  C   UNK A  5       -8.907 -11.222  -4.491  0.00  0.00    -0.045 A 
ATOM     13  C   UNK A  5       -8.858 -12.435  -3.799  0.00  0.00    +0.007 A 
ATOM     14  C   UNK A  5       -7.829 -13.349  -4.037  0.00  0.00    +0.046 A 
ATOM     15  C   UNK A  5       -6.829 -13.051  -4.962  0.00  0.00    +0.120 A 
ATOM     16  C   UNK A  5       -6.843 -11.852  -5.679  0.00  0.00    +0.000 A 
ATOM     17  C   UNK A  5       -5.655 -11.403  -6.530  0.00  0.00    +0.059 C 
ATOM     18  C   UNK A  5       -5.924 -11.091  -8.023  0.00  0.00    +0.195 C 
ATOM     19  C   UNK A  5       -4.522 -10.787  -8.543  0.00  0.00    +0.163 C 
ATOM     20  O   UNK A  5       -3.934 -11.520  -9.332  0.00  0.00    -0.295 OA
ATOM     21  C   UNK A  5       -3.901  -9.504  -8.042  0.00  0.00    +0.083 C 
ATOM     22  C   UNK A  5       -4.958 -10.261  -5.765  0.00  0.00    +0.017 C 
ATOM     23  C   UNK A  5       -7.890 -10.953  -5.422  0.00  0.00    +0.011 A 
ATOM     24  O   ALA A  4       -9.271  -7.109  -4.126  0.00  0.00    -0.274 OA
ATOM     25  O   UNK A  3       -5.712  -6.870  -7.775  0.00  0.00    -0.274 OA
ATOM     26  C   UNK A  5       -3.991  -9.327  -6.519  0.00  0.00    +0.026 C 
ENDROOT
BRANCH   1  28
ATOM     27  C   GLY A  2       -2.154  -6.865  -5.229  0.00  0.00    +0.233 C 
ATOM     28  N   UNK A  3       -3.073  -6.965  -6.265  0.00  0.00    -0.291 N 
ATOM     29  C   UNK A  3       -3.004  -6.173  -7.487  0.00  0.00    +0.133 C 
ATOM     30  O   GLY A  2       -2.188  -7.638  -4.264  0.00  0.00    -0.274 OA
BRANCH  27  31
ATOM     31  CA  GLY A  2       -1.006  -5.862  -5.331  0.00  0.00    +0.200 C 
BRANCH  31  33
ATOM     32  C   ALA A  1        1.414  -5.938  -4.973  0.00  0.00    +0.233 C 
ATOM     33  N   GLY A  2        0.219  -6.590  -5.101  0.00  0.00    -0.305 N 
ATOM     34  H   GLY A  2        0.126  -7.554  -4.822  0.00  0.00    +0.149 HD
ATOM     35  O   ALA A  1        1.488  -4.715  -5.137  0.00  0.00    -0.274 OA
BRANCH  32  36
ATOM     36  CA  ALA A  1        2.580  -6.812  -4.450  0.00  0.00    +0.156 C 
ATOM     37  CB  ALA A  1        3.877  -5.993  -4.528  0.00  0.00    +0.038 C 
BRANCH  36  39
ATOM     38  C   UNK A  0        2.309  -9.371  -4.984  0.00  0.00    +0.236 C 
ATOM     39  N   ALA A  1        2.745  -8.090  -5.168  0.00  0.00    -0.303 N 
ATOM     40  H   ALA A  1        3.268  -8.029  -6.038  0.00  0.00    +0.149 HD
ATOM     41  O   UNK A  0        2.662 -10.180  -5.851  0.00  0.00    -0.274 OA
BRANCH  38  42
ATOM     42  C   UNK A  0        1.439  -9.809  -3.782  0.00  0.00    +0.187 C 
BRANCH  42  43
ATOM     43  N   UNK A  0        2.172 -10.407  -2.632  0.00  0.00    -0.291 N 
ATOM     44  C   UNK A  0        2.581 -11.736  -2.645  0.00  0.00    +0.213 C 
ATOM     45  C   UNK A  0        3.427 -12.218  -1.489  0.00  0.00    +0.109 C 
ATOM     46  O   UNK A  0        2.296 -12.537  -3.533  0.00  0.00    -0.276 OA
ATOM     47  C   UNK A  0        2.476  -9.510  -1.524  0.00  0.00    +0.133 C 
ENDBRANCH  42  43
BRANCH  42  48
ATOM     48  C   UNK A  0        0.262 -10.654  -4.338  0.00  0.00    +0.187 C 
BRANCH  48  49
ATOM     49  O   UNK A  0       -0.795 -10.712  -3.376  0.00  0.00    -0.393 OA
ATOM     50  H   UNK A  0       -1.517 -11.220  -3.792  0.00  0.00    +0.209 HD
ENDBRANCH  48  49
ENDBRANCH  42  48
ENDBRANCH  38  42
ENDBRANCH  36  39
ENDBRANCH  32  36
ENDBRANCH  31  33
ENDBRANCH  27  31
ENDBRANCH   1  28
BRANCH  10  51
ATOM     51  C   UNK A  5      -11.376 -10.153  -6.349  0.00  0.00    +0.326 C 
ATOM     52  O   UNK A  5      -12.338  -9.696  -6.924  0.00  0.00    -0.249 OA
BRANCH  51  53
ATOM     53  O   UNK A  5      -10.831 -11.343  -6.750  0.00  0.00    -0.479 OA
ATOM     54  H   UNK A  5      -10.091 -11.669  -6.264  0.00  0.00    +0.295 HD
ENDBRANCH  51  53
ENDBRANCH  10  51
BRANCH  15  55
ATOM     55  O   UNK A  5       -5.786 -13.913  -5.133  0.00  0.00    -0.506 OA
ATOM     56  H   UNK A  5       -5.882 -14.659  -4.518  0.00  0.00    +0.292 HD
ENDBRANCH  15  55
BRANCH  18  57
ATOM     57  O   UNK A  5       -6.846 -10.012  -8.271  0.00  0.00    -0.337 OA
BRANCH  57  58
ATOM     58  C   UNK A  5       -7.209  -9.925  -9.675  0.00  0.00    +0.282 C 
ATOM     59  O   UNK A  5       -7.523 -11.202 -10.217  0.00  0.00    -0.343 OA
ATOM     60  C   UNK A  5       -8.730 -11.781  -9.707  0.00  0.00    +0.149 C 
ATOM     61  C   UNK A  5       -8.843 -13.170 -10.321  0.00  0.00    +0.041 C 
ATOM     62  C   UNK A  5       -9.954 -10.904 -10.014  0.00  0.00    +0.174 C 
ATOM     63  C   UNK A  5       -9.706  -9.484  -9.495  0.00  0.00    +0.179 C 
ATOM     64  C   UNK A  5       -8.350  -8.905  -9.912  0.00  0.00    +0.201 C 
BRANCH  64  65
ATOM     65  O   UNK A  5       -8.474  -8.484 -11.288  0.00  0.00    -0.384 OA
ATOM     66  H   UNK A  5       -7.598  -8.194 -11.597  0.00  0.00    +0.210 HD
ENDBRANCH  64  65
BRANCH  63  67
ATOM     67  O   UNK A  5      -10.754  -8.608  -9.933  0.00  0.00    -0.386 OA
ATOM     68  H   UNK A  5      -10.426  -8.233 -10.779  0.00  0.00    +0.210 HD
ENDBRANCH  63  67
BRANCH  62  69
ATOM     69  O   UNK A  5      -10.236 -10.883 -11.416  0.00  0.00    -0.387 OA
ATOM     70  H   UNK A  5      -10.947 -10.227 -11.533  0.00  0.00    +0.210 HD
ENDBRANCH  62  69
ENDBRANCH  57  58
ENDBRANCH  18  57
TORSDOF 17
