MODEL 1
REMARK VINA RESULT:    -7.564      0.000      0.000
REMARK INTER + INTRA:          -9.449
REMARK INTER:                  -9.371
REMARK INTRA:                  -0.078
REMARK UNBOUND:                -0.559
REMARK SMILES O=C(Nc1ccc2c(c1)OC(F)(F)O2)Nc1ccc(Cl)c(C(F)(F)F)c1
REMARK SMILES IDX 20 1 16 2 21 3 26 4 17 5 19 6 18 7 22 8 23 9 24 10 25 11
REMARK SMILES IDX 15 12 2 13 1 15 3 16 4 18 9 19 5 20 8 21 6 22 10 23 7 24
REMARK SMILES IDX 11 25 14 26 12 27 13 28
REMARK H PARENT 15 14 3 17
REMARK Flexibility Score: inf
ROOT
ATOM      1  Cl  UNL     1     -26.642  -0.364 -15.313  1.00  0.00    -0.084 Cl
ATOM      2  C   UNL     1     -22.695   1.099 -13.675  1.00  0.00     0.043 A 
ATOM      3  C   UNL     1     -24.115  -0.733 -14.360  1.00  0.00     0.076 A 
ATOM      4  C   UNL     1     -22.900  -0.269 -13.856  1.00  0.00     0.040 A 
ATOM      5  C   UNL     1     -23.706   2.004 -14.000  1.00  0.00     0.028 A 
ATOM      6  C   UNL     1     -25.126   0.172 -14.684  1.00  0.00     0.053 A 
ATOM      7  C   UNL     1     -24.923   1.541 -14.503  1.00  0.00     0.023 A 
ENDROOT
BRANCH   3   8
ATOM      8  C   UNL     1     -24.294  -2.206 -14.540  1.00  0.00     0.417 C 
ATOM      9  F   UNL     1     -23.428  -2.934 -13.778  1.00  0.00    -0.166 F 
ATOM     10  F   UNL     1     -25.540  -2.647 -14.206  1.00  0.00    -0.166 F 
ATOM     11  F   UNL     1     -24.096  -2.624 -15.824  1.00  0.00    -0.166 F 
ENDBRANCH   3   8
BRANCH   2  12
ATOM     12  N   UNL     1     -21.464   1.569 -13.163  1.00  0.00    -0.308 N 
ATOM     13  C   UNL     1     -20.664   0.988 -12.165  1.00  0.00     0.323 C 
ATOM     14  H   UNL     1     -21.123   2.434 -13.573  1.00  0.00     0.171 HD
ATOM     15  O   UNL     1     -20.922  -0.051 -11.565  1.00  0.00    -0.248 OA
ATOM     16  N   UNL     1     -19.510   1.779 -11.948  1.00  0.00    -0.308 N 
ATOM     17  H   UNL     1     -19.431   2.616 -12.521  1.00  0.00     0.171 HD
BRANCH  16  18
ATOM     18  C   UNL     1     -18.463   1.565 -11.051  1.00  0.00     0.046 A 
ATOM     19  C   UNL     1     -17.235   1.091 -11.522  1.00  0.00     0.077 A 
ATOM     20  C   UNL     1     -18.653   1.827  -9.683  1.00  0.00     0.030 A 
ATOM     21  C   UNL     1     -16.229   0.894 -10.600  1.00  0.00     0.174 A 
ATOM     22  C   UNL     1     -17.617   1.619  -8.769  1.00  0.00     0.053 A 
ATOM     23  O   UNL     1     -14.974   0.441 -10.871  1.00  0.00    -0.395 OA
ATOM     24  C   UNL     1     -16.415   1.151  -9.258  1.00  0.00     0.172 A 
ATOM     25  C   UNL     1     -14.408   0.445  -9.553  1.00  0.00     0.586 C 
ATOM     26  O   UNL     1     -15.300   0.892  -8.521  1.00  0.00    -0.395 OA
ATOM     27  F   UNL     1     -13.312   1.245  -9.555  1.00  0.00    -0.125 F 
ATOM     28  F   UNL     1     -13.996  -0.812  -9.254  1.00  0.00    -0.125 F 
ENDBRANCH  16  18
ENDBRANCH   2  12
TORSDOF 3
ENDMDL
MODEL 2
REMARK VINA RESULT:    -7.395      4.198     10.122
REMARK INTER + INTRA:          -9.251
REMARK INTER:                  -8.893
REMARK INTRA:                  -0.358
REMARK UNBOUND:                -0.559
REMARK SMILES O=C(Nc1ccc2c(c1)OC(F)(F)O2)Nc1ccc(Cl)c(C(F)(F)F)c1
REMARK SMILES IDX 20 1 16 2 21 3 26 4 17 5 19 6 18 7 22 8 23 9 24 10 25 11
REMARK SMILES IDX 15 12 2 13 1 15 3 16 4 18 9 19 5 20 8 21 6 22 10 23 7 24
REMARK SMILES IDX 11 25 14 26 12 27 13 28
REMARK H PARENT 15 14 3 17
REMARK Flexibility Score: inf
ROOT
ATOM      1  Cl  UNL     1     -10.989   2.775  -9.273  1.00  0.00    -0.084 Cl
ATOM      2  C   UNL     1     -15.238   1.247  -9.343  1.00  0.00     0.043 A 
ATOM      3  C   UNL     1     -13.581   2.750  -8.431  1.00  0.00     0.076 A 
ATOM      4  C   UNL     1     -14.891   2.272  -8.462  1.00  0.00     0.040 A 
ATOM      5  C   UNL     1     -14.276   0.703 -10.194  1.00  0.00     0.028 A 
ATOM      6  C   UNL     1     -12.619   2.206  -9.281  1.00  0.00     0.053 A 
ATOM      7  C   UNL     1     -12.965   1.181 -10.163  1.00  0.00     0.023 A 
ENDROOT
BRANCH   3   8
ATOM      8  C   UNL     1     -13.249   3.850  -7.474  1.00  0.00     0.417 C 
ATOM      9  F   UNL     1     -12.353   3.460  -6.522  1.00  0.00    -0.166 F 
ATOM     10  F   UNL     1     -12.698   4.944  -8.073  1.00  0.00    -0.166 F 
ATOM     11  F   UNL     1     -14.332   4.321  -6.791  1.00  0.00    -0.166 F 
ENDBRANCH   3   8
BRANCH   2  12
ATOM     12  N   UNL     1     -16.566   0.761  -9.374  1.00  0.00    -0.308 N 
ATOM     13  C   UNL     1     -17.518   0.910 -10.395  1.00  0.00     0.323 C 
ATOM     14  H   UNL     1     -16.858   0.239  -8.551  1.00  0.00     0.171 HD
ATOM     15  O   UNL     1     -17.337   1.507 -11.452  1.00  0.00    -0.248 OA
ATOM     16  N   UNL     1     -18.726   0.270 -10.027  1.00  0.00    -0.308 N 
ATOM     17  H   UNL     1     -18.729  -0.185  -9.117  1.00  0.00     0.171 HD
BRANCH  16  18
ATOM     18  C   UNL     1     -19.918   0.179 -10.747  1.00  0.00     0.046 A 
ATOM     19  C   UNL     1     -19.903  -0.328 -12.049  1.00  0.00     0.077 A 
ATOM     20  C   UNL     1     -21.123   0.597 -10.155  1.00  0.00     0.030 A 
ATOM     21  C   UNL     1     -21.104  -0.399 -12.722  1.00  0.00     0.174 A 
ATOM     22  C   UNL     1     -22.327   0.514 -10.858  1.00  0.00     0.053 A 
ATOM     23  O   UNL     1     -21.283  -0.862 -13.991  1.00  0.00    -0.395 OA
ATOM     24  C   UNL     1     -22.286   0.011 -12.142  1.00  0.00     0.172 A 
ATOM     25  C   UNL     1     -22.701  -0.691 -14.129  1.00  0.00     0.586 C 
ATOM     26  O   UNL     1     -23.353  -0.144 -12.973  1.00  0.00    -0.395 OA
ATOM     27  F   UNL     1     -23.257  -1.897 -14.410  1.00  0.00    -0.125 F 
ATOM     28  F   UNL     1     -22.938   0.124 -15.186  1.00  0.00    -0.125 F 
ENDBRANCH  16  18
ENDBRANCH   2  12
TORSDOF 3
ENDMDL
MODEL 3
REMARK VINA RESULT:    -7.357      1.981      2.457
REMARK INTER + INTRA:          -9.206
REMARK INTER:                  -8.928
REMARK INTRA:                  -0.278
REMARK UNBOUND:                -0.559
REMARK SMILES O=C(Nc1ccc2c(c1)OC(F)(F)O2)Nc1ccc(Cl)c(C(F)(F)F)c1
REMARK SMILES IDX 20 1 16 2 21 3 26 4 17 5 19 6 18 7 22 8 23 9 24 10 25 11
REMARK SMILES IDX 15 12 2 13 1 15 3 16 4 18 9 19 5 20 8 21 6 22 10 23 7 24
REMARK SMILES IDX 11 25 14 26 12 27 13 28
REMARK H PARENT 15 14 3 17
REMARK Flexibility Score: inf
ROOT
ATOM      1  Cl  UNL     1     -25.195  -3.689 -12.720  1.00  0.00    -0.084 Cl
ATOM      2  C   UNL     1     -21.774  -0.865 -11.873  1.00  0.00     0.043 A 
ATOM      3  C   UNL     1     -23.320  -1.849 -13.448  1.00  0.00     0.076 A 
ATOM      4  C   UNL     1     -22.265  -0.979 -13.174  1.00  0.00     0.040 A 
ATOM      5  C   UNL     1     -22.340  -1.620 -10.846  1.00  0.00     0.028 A 
ATOM      6  C   UNL     1     -23.886  -2.604 -12.421  1.00  0.00     0.053 A 
ATOM      7  C   UNL     1     -23.395  -2.491 -11.119  1.00  0.00     0.023 A 
ENDROOT
BRANCH   3   8
ATOM      8  C   UNL     1     -23.819  -1.941 -14.854  1.00  0.00     0.417 C 
ATOM      9  F   UNL     1     -22.959  -1.376 -15.750  1.00  0.00    -0.166 F 
ATOM     10  F   UNL     1     -24.007  -3.223 -15.281  1.00  0.00    -0.166 F 
ATOM     11  F   UNL     1     -25.016  -1.318 -15.048  1.00  0.00    -0.166 F 
ENDBRANCH   3   8
BRANCH   2  12
ATOM     12  N   UNL     1     -20.703   0.016 -11.596  1.00  0.00    -0.308 N 
ATOM     13  C   UNL     1     -19.533  -0.249 -10.865  1.00  0.00     0.323 C 
ATOM     14  H   UNL     1     -20.800   0.953 -11.977  1.00  0.00     0.171 HD
ATOM     15  O   UNL     1     -19.253  -1.321 -10.338  1.00  0.00    -0.248 OA
ATOM     16  N   UNL     1     -18.717   0.908 -10.823  1.00  0.00    -0.308 N 
ATOM     17  H   UNL     1     -19.080   1.726 -11.307  1.00  0.00     0.171 HD
BRANCH  16  18
ATOM     18  C   UNL     1     -17.477   1.078 -10.206  1.00  0.00     0.046 A 
ATOM     19  C   UNL     1     -16.308   0.761 -10.902  1.00  0.00     0.077 A 
ATOM     20  C   UNL     1     -17.416   1.565  -8.889  1.00  0.00     0.030 A 
ATOM     21  C   UNL     1     -15.106   0.944 -10.252  1.00  0.00     0.174 A 
ATOM     22  C   UNL     1     -16.185   1.743  -8.253  1.00  0.00     0.053 A 
ATOM     23  O   UNL     1     -13.871   0.691 -10.769  1.00  0.00    -0.395 OA
ATOM     24  C   UNL     1     -15.046   1.422  -8.961  1.00  0.00     0.172 A 
ATOM     25  C   UNL     1     -13.046   1.064  -9.657  1.00  0.00     0.586 C 
ATOM     26  O   UNL     1     -13.767   1.530  -8.507  1.00  0.00    -0.395 OA
ATOM     27  F   UNL     1     -12.193   2.040 -10.059  1.00  0.00    -0.125 F 
ATOM     28  F   UNL     1     -12.298  -0.007  -9.294  1.00  0.00    -0.125 F 
ENDBRANCH  16  18
ENDBRANCH   2  12
TORSDOF 3
ENDMDL
MODEL 4
REMARK VINA RESULT:    -7.260      2.884      4.097
REMARK INTER + INTRA:          -9.092
REMARK INTER:                  -8.599
REMARK INTRA:                  -0.493
REMARK UNBOUND:                -0.559
REMARK SMILES O=C(Nc1ccc2c(c1)OC(F)(F)O2)Nc1ccc(Cl)c(C(F)(F)F)c1
REMARK SMILES IDX 20 1 16 2 21 3 26 4 17 5 19 6 18 7 22 8 23 9 24 10 25 11
REMARK SMILES IDX 15 12 2 13 1 15 3 16 4 18 9 19 5 20 8 21 6 22 10 23 7 24
REMARK SMILES IDX 11 25 14 26 12 27 13 28
REMARK H PARENT 15 14 3 17
REMARK Flexibility Score: inf
ROOT
ATOM      1  Cl  UNL     1     -24.012  -2.719 -12.693  1.00  0.00    -0.084 Cl
ATOM      2  C   UNL     1     -20.414  -1.284 -10.371  1.00  0.00     0.043 A 
ATOM      3  C   UNL     1     -21.902  -1.050 -12.261  1.00  0.00     0.076 A 
ATOM      4  C   UNL     1     -20.793  -0.614 -11.534  1.00  0.00     0.040 A 
ATOM      5  C   UNL     1     -21.145  -2.388  -9.933  1.00  0.00     0.028 A 
ATOM      6  C   UNL     1     -22.633  -2.154 -11.823  1.00  0.00     0.053 A 
ATOM      7  C   UNL     1     -22.254  -2.824 -10.659  1.00  0.00     0.023 A 
ENDROOT
BRANCH   3   8
ATOM      8  C   UNL     1     -22.276  -0.304 -13.501  1.00  0.00     0.417 C 
ATOM      9  F   UNL     1     -22.213  -1.084 -14.618  1.00  0.00    -0.166 F 
ATOM     10  F   UNL     1     -23.544   0.197 -13.472  1.00  0.00    -0.166 F 
ATOM     11  F   UNL     1     -21.472   0.769 -13.754  1.00  0.00    -0.166 F 
ENDBRANCH   3   8
BRANCH   2  12
ATOM     12  N   UNL     1     -19.288  -0.844  -9.636  1.00  0.00    -0.308 N 
ATOM     13  C   UNL     1     -17.942  -0.845 -10.034  1.00  0.00     0.323 C 
ATOM     14  H   UNL     1     -19.489  -0.485  -8.707  1.00  0.00     0.171 HD
ATOM     15  O   UNL     1     -17.522  -1.242 -11.117  1.00  0.00    -0.248 OA
ATOM     16  N   UNL     1     -17.131  -0.320  -8.998  1.00  0.00    -0.308 N 
ATOM     17  H   UNL     1     -17.620  -0.031  -8.154  1.00  0.00     0.171 HD
BRANCH  16  18
ATOM     18  C   UNL     1     -15.747  -0.144  -8.979  1.00  0.00     0.046 A 
ATOM     19  C   UNL     1     -15.210   1.135  -9.146  1.00  0.00     0.077 A 
ATOM     20  C   UNL     1     -14.907  -1.256  -8.794  1.00  0.00     0.030 A 
ATOM     21  C   UNL     1     -13.837   1.261  -9.120  1.00  0.00     0.174 A 
ATOM     22  C   UNL     1     -13.518  -1.101  -8.771  1.00  0.00     0.053 A 
ATOM     23  O   UNL     1     -13.138   2.421  -9.264  1.00  0.00    -0.395 OA
ATOM     24  C   UNL     1     -13.012   0.171  -8.938  1.00  0.00     0.172 A 
ATOM     25  C   UNL     1     -11.795   1.928  -9.152  1.00  0.00     0.586 C 
ATOM     26  O   UNL     1     -11.694   0.512  -8.943  1.00  0.00    -0.395 OA
ATOM     27  F   UNL     1     -11.186   2.562  -8.118  1.00  0.00    -0.125 F 
ATOM     28  F   UNL     1     -11.120   2.249 -10.283  1.00  0.00    -0.125 F 
ENDBRANCH  16  18
ENDBRANCH   2  12
TORSDOF 3
ENDMDL
MODEL 5
REMARK VINA RESULT:    -7.245      3.935      9.528
REMARK INTER + INTRA:          -9.075
REMARK INTER:                  -8.570
REMARK INTRA:                  -0.505
REMARK UNBOUND:                -0.559
REMARK SMILES O=C(Nc1ccc2c(c1)OC(F)(F)O2)Nc1ccc(Cl)c(C(F)(F)F)c1
REMARK SMILES IDX 20 1 16 2 21 3 26 4 17 5 19 6 18 7 22 8 23 9 24 10 25 11
REMARK SMILES IDX 15 12 2 13 1 15 3 16 4 18 9 19 5 20 8 21 6 22 10 23 7 24
REMARK SMILES IDX 11 25 14 26 12 27 13 28
REMARK H PARENT 15 14 3 17
REMARK Flexibility Score: inf
ROOT
ATOM      1  Cl  UNL     1     -15.474   0.258  -8.268  1.00  0.00    -0.084 Cl
ATOM      2  C   UNL     1     -18.585  -0.156 -11.515  1.00  0.00     0.043 A 
ATOM      3  C   UNL     1     -17.173  -1.178  -9.842  1.00  0.00     0.076 A 
ATOM      4  C   UNL     1     -18.135  -1.294 -10.846  1.00  0.00     0.040 A 
ATOM      5  C   UNL     1     -18.075   1.098 -11.179  1.00  0.00     0.028 A 
ATOM      6  C   UNL     1     -16.662   0.075  -9.506  1.00  0.00     0.053 A 
ATOM      7  C   UNL     1     -17.112   1.214 -10.175  1.00  0.00     0.023 A 
ENDROOT
BRANCH   3   8
ATOM      8  C   UNL     1     -16.718  -2.422  -9.148  1.00  0.00     0.417 C 
ATOM      9  F   UNL     1     -17.452  -3.515  -9.502  1.00  0.00    -0.166 F 
ATOM     10  F   UNL     1     -15.420  -2.748  -9.413  1.00  0.00    -0.166 F 
ATOM     11  F   UNL     1     -16.799  -2.346  -7.789  1.00  0.00    -0.166 F 
ENDBRANCH   3   8
BRANCH   2  12
ATOM     12  N   UNL     1     -19.559  -0.273 -12.534  1.00  0.00    -0.308 N 
ATOM     13  C   UNL     1     -20.941  -0.479 -12.390  1.00  0.00     0.323 C 
ATOM     14  H   UNL     1     -19.206  -0.197 -13.484  1.00  0.00     0.171 HD
ATOM     15  O   UNL     1     -21.533  -0.593 -11.321  1.00  0.00    -0.248 OA
ATOM     16  N   UNL     1     -21.556  -0.537 -13.663  1.00  0.00    -0.308 N 
ATOM     17  H   UNL     1     -20.936  -0.427 -14.462  1.00  0.00     0.171 HD
BRANCH  16  18
ATOM     18  C   UNL     1     -22.904  -0.727 -13.972  1.00  0.00     0.046 A 
ATOM     19  C   UNL     1     -23.664   0.347 -14.442  1.00  0.00     0.077 A 
ATOM     20  C   UNL     1     -23.484  -1.997 -13.806  1.00  0.00     0.030 A 
ATOM     21  C   UNL     1     -24.991   0.113 -14.733  1.00  0.00     0.174 A 
ATOM     22  C   UNL     1     -24.831  -2.208 -14.110  1.00  0.00     0.053 A 
ATOM     23  O   UNL     1     -25.881   1.033 -15.200  1.00  0.00    -0.395 OA
ATOM     24  C   UNL     1     -25.560  -1.132 -14.571  1.00  0.00     0.172 A 
ATOM     25  C   UNL     1     -27.059   0.220 -15.305  1.00  0.00     0.586 C 
ATOM     26  O   UNL     1     -26.877  -1.149 -14.916  1.00  0.00    -0.395 OA
ATOM     27  F   UNL     1     -27.492   0.251 -16.591  1.00  0.00    -0.125 F 
ATOM     28  F   UNL     1     -28.031   0.764 -14.533  1.00  0.00    -0.125 F 
ENDBRANCH  16  18
ENDBRANCH   2  12
TORSDOF 3
ENDMDL
MODEL 6
REMARK VINA RESULT:    -7.191      3.998      9.596
REMARK INTER + INTRA:          -9.012
REMARK INTER:                  -8.663
REMARK INTRA:                  -0.349
REMARK UNBOUND:                -0.559
REMARK SMILES O=C(Nc1ccc2c(c1)OC(F)(F)O2)Nc1ccc(Cl)c(C(F)(F)F)c1
REMARK SMILES IDX 20 1 16 2 21 3 26 4 17 5 19 6 18 7 22 8 23 9 24 10 25 11
REMARK SMILES IDX 15 12 2 13 1 15 3 16 4 18 9 19 5 20 8 21 6 22 10 23 7 24
REMARK SMILES IDX 11 25 14 26 12 27 13 28
REMARK H PARENT 15 14 3 17
REMARK Flexibility Score: inf
ROOT
ATOM      1  Cl  UNL     1     -15.448   1.684  -7.609  1.00  0.00    -0.084 Cl
ATOM      2  C   UNL     1     -18.419   1.262 -10.984  1.00  0.00     0.043 A 
ATOM      3  C   UNL     1     -17.924   1.941  -8.719  1.00  0.00     0.076 A 
ATOM      4  C   UNL     1     -18.833   1.807  -9.769  1.00  0.00     0.040 A 
ATOM      5  C   UNL     1     -17.096   0.852 -11.150  1.00  0.00     0.028 A 
ATOM      6  C   UNL     1     -16.601   1.531  -8.885  1.00  0.00     0.053 A 
ATOM      7  C   UNL     1     -16.187   0.985 -10.100  1.00  0.00     0.023 A 
ENDROOT
BRANCH   3   8
ATOM      8  C   UNL     1     -18.407   2.531  -7.433  1.00  0.00     0.417 C 
ATOM      9  F   UNL     1     -18.423   1.623  -6.415  1.00  0.00    -0.166 F 
ATOM     10  F   UNL     1     -17.639   3.568  -6.989  1.00  0.00    -0.166 F 
ATOM     11  F   UNL     1     -19.675   3.028  -7.505  1.00  0.00    -0.166 F 
ENDBRANCH   3   8
BRANCH   2  12
ATOM     12  N   UNL     1     -19.341   1.124 -12.048  1.00  0.00    -0.308 N 
ATOM     13  C   UNL     1     -20.575   0.453 -12.042  1.00  0.00     0.323 C 
ATOM     14  H   UNL     1     -19.068   1.569 -12.921  1.00  0.00     0.171 HD
ATOM     15  O   UNL     1     -21.057  -0.136 -11.080  1.00  0.00    -0.248 OA
ATOM     16  N   UNL     1     -21.186   0.555 -13.315  1.00  0.00    -0.308 N 
ATOM     17  H   UNL     1     -20.666   1.075 -14.018  1.00  0.00     0.171 HD
BRANCH  16  18
ATOM     18  C   UNL     1     -22.411   0.035 -13.738  1.00  0.00     0.046 A 
ATOM     19  C   UNL     1     -23.459   0.903 -14.051  1.00  0.00     0.077 A 
ATOM     20  C   UNL     1     -22.576  -1.357 -13.843  1.00  0.00     0.030 A 
ATOM     21  C   UNL     1     -24.651   0.345 -14.463  1.00  0.00     0.174 A 
ATOM     22  C   UNL     1     -23.794  -1.898 -14.264  1.00  0.00     0.053 A 
ATOM     23  O   UNL     1     -25.777   1.029 -14.809  1.00  0.00    -0.395 OA
ATOM     24  C   UNL     1     -24.814  -1.020 -14.567  1.00  0.00     0.172 A 
ATOM     25  C   UNL     1     -26.650  -0.062 -15.135  1.00  0.00     0.586 C 
ATOM     26  O   UNL     1     -26.062  -1.362 -14.992  1.00  0.00    -0.395 OA
ATOM     27  F   UNL     1     -27.067   0.086 -16.418  1.00  0.00    -0.125 F 
ATOM     28  F   UNL     1     -27.746   0.008 -14.340  1.00  0.00    -0.125 F 
ENDBRANCH  16  18
ENDBRANCH   2  12
TORSDOF 3
ENDMDL
MODEL 7
REMARK VINA RESULT:    -7.144      6.366      9.432
REMARK INTER + INTRA:          -8.956
REMARK INTER:                  -8.576
REMARK INTRA:                  -0.380
REMARK UNBOUND:                -0.559
REMARK SMILES O=C(Nc1ccc2c(c1)OC(F)(F)O2)Nc1ccc(Cl)c(C(F)(F)F)c1
REMARK SMILES IDX 20 1 16 2 21 3 26 4 17 5 19 6 18 7 22 8 23 9 24 10 25 11
REMARK SMILES IDX 15 12 2 13 1 15 3 16 4 18 9 19 5 20 8 21 6 22 10 23 7 24
REMARK SMILES IDX 11 25 14 26 12 27 13 28
REMARK H PARENT 15 14 3 17
REMARK Flexibility Score: inf
ROOT
ATOM      1  Cl  UNL     1     -20.106  11.928 -11.401  1.00  0.00    -0.084 Cl
ATOM      2  C   UNL     1     -20.606   7.464 -10.932  1.00  0.00     0.043 A 
ATOM      3  C   UNL     1     -19.335   9.340 -11.770  1.00  0.00     0.076 A 
ATOM      4  C   UNL     1     -19.499   7.963 -11.617  1.00  0.00     0.040 A 
ATOM      5  C   UNL     1     -21.549   8.342 -10.397  1.00  0.00     0.028 A 
ATOM      6  C   UNL     1     -20.277  10.218 -11.235  1.00  0.00     0.053 A 
ATOM      7  C   UNL     1     -21.385   9.720 -10.549  1.00  0.00     0.023 A 
ENDROOT
BRANCH   3   8
ATOM      8  C   UNL     1     -18.134   9.835 -12.510  1.00  0.00     0.417 C 
ATOM      9  F   UNL     1     -18.465  10.579 -13.605  1.00  0.00    -0.166 F 
ATOM     10  F   UNL     1     -17.320  10.629 -11.757  1.00  0.00    -0.166 F 
ATOM     11  F   UNL     1     -17.331   8.834 -12.974  1.00  0.00    -0.166 F 
ENDBRANCH   3   8
BRANCH   2  12
ATOM     12  N   UNL     1     -20.773   6.068 -10.779  1.00  0.00    -0.308 N 
ATOM     13  C   UNL     1     -20.827   5.088 -11.784  1.00  0.00     0.323 C 
ATOM     14  H   UNL     1     -20.865   5.743  -9.820  1.00  0.00     0.171 HD
ATOM     15  O   UNL     1     -20.734   5.302 -12.988  1.00  0.00    -0.248 OA
ATOM     16  N   UNL     1     -21.006   3.809 -11.203  1.00  0.00    -0.308 N 
ATOM     17  H   UNL     1     -21.067   3.786 -10.188  1.00  0.00     0.171 HD
BRANCH  16  18
ATOM     18  C   UNL     1     -21.110   2.571 -11.838  1.00  0.00     0.046 A 
ATOM     19  C   UNL     1     -22.210   2.303 -12.656  1.00  0.00     0.077 A 
ATOM     20  C   UNL     1     -20.106   1.605 -11.648  1.00  0.00     0.030 A 
ATOM     21  C   UNL     1     -22.271   1.066 -13.262  1.00  0.00     0.174 A 
ATOM     22  C   UNL     1     -20.191   0.359 -12.275  1.00  0.00     0.053 A 
ATOM     23  O   UNL     1     -23.262   0.629 -14.088  1.00  0.00    -0.395 OA
ATOM     24  C   UNL     1     -21.287   0.119 -13.076  1.00  0.00     0.172 A 
ATOM     25  C   UNL     1     -22.782  -0.689 -14.390  1.00  0.00     0.586 C 
ATOM     26  O   UNL     1     -21.537  -1.030 -13.763  1.00  0.00    -0.395 OA
ATOM     27  F   UNL     1     -22.635  -0.800 -15.734  1.00  0.00    -0.125 F 
ATOM     28  F   UNL     1     -23.721  -1.590 -14.006  1.00  0.00    -0.125 F 
ENDBRANCH  16  18
ENDBRANCH   2  12
TORSDOF 3
ENDMDL
MODEL 8
REMARK VINA RESULT:    -7.140      2.681      3.858
REMARK INTER + INTRA:          -8.952
REMARK INTER:                  -8.473
REMARK INTRA:                  -0.479
REMARK UNBOUND:                -0.559
REMARK SMILES O=C(Nc1ccc2c(c1)OC(F)(F)O2)Nc1ccc(Cl)c(C(F)(F)F)c1
REMARK SMILES IDX 20 1 16 2 21 3 26 4 17 5 19 6 18 7 22 8 23 9 24 10 25 11
REMARK SMILES IDX 15 12 2 13 1 15 3 16 4 18 9 19 5 20 8 21 6 22 10 23 7 24
REMARK SMILES IDX 11 25 14 26 12 27 13 28
REMARK H PARENT 15 14 3 17
REMARK Flexibility Score: inf
ROOT
ATOM      1  Cl  UNL     1     -23.253   1.263 -14.295  1.00  0.00    -0.084 Cl
ATOM      2  C   UNL     1     -19.897   1.349 -11.275  1.00  0.00     0.043 A 
ATOM      3  C   UNL     1     -21.673   0.139 -12.380  1.00  0.00     0.076 A 
ATOM      4  C   UNL     1     -20.633   0.177 -11.451  1.00  0.00     0.040 A 
ATOM      5  C   UNL     1     -20.200   2.482 -12.029  1.00  0.00     0.028 A 
ATOM      6  C   UNL     1     -21.976   1.273 -13.134  1.00  0.00     0.053 A 
ATOM      7  C   UNL     1     -21.240   2.445 -12.959  1.00  0.00     0.023 A 
ENDROOT
BRANCH   3   8
ATOM      8  C   UNL     1     -22.437  -1.136 -12.539  1.00  0.00     0.417 C 
ATOM      9  F   UNL     1     -22.005  -2.112 -11.689  1.00  0.00    -0.166 F 
ATOM     10  F   UNL     1     -23.773  -1.003 -12.300  1.00  0.00    -0.166 F 
ATOM     11  F   UNL     1     -22.347  -1.670 -13.791  1.00  0.00    -0.166 F 
ENDBRANCH   3   8
BRANCH   2  12
ATOM     12  N   UNL     1     -18.843   1.388 -10.332  1.00  0.00    -0.308 N 
ATOM     13  C   UNL     1     -17.471   1.199 -10.560  1.00  0.00     0.323 C 
ATOM     14  H   UNL     1     -19.124   1.576  -9.373  1.00  0.00     0.171 HD
ATOM     15  O   UNL     1     -16.959   0.964 -11.651  1.00  0.00    -0.248 OA
ATOM     16  N   UNL     1     -16.757   1.320  -9.344  1.00  0.00    -0.308 N 
ATOM     17  H   UNL     1     -17.316   1.517  -8.517  1.00  0.00     0.171 HD
BRANCH  16  18
ATOM     18  C   UNL     1     -15.383   1.206  -9.124  1.00  0.00     0.046 A 
ATOM     19  C   UNL     1     -14.670   2.295  -8.617  1.00  0.00     0.077 A 
ATOM     20  C   UNL     1     -14.731  -0.005  -9.417  1.00  0.00     0.030 A 
ATOM     21  C   UNL     1     -13.316   2.135  -8.417  1.00  0.00     0.174 A 
ATOM     22  C   UNL     1     -13.356  -0.141  -9.204  1.00  0.00     0.053 A 
ATOM     23  O   UNL     1     -12.463   3.081  -7.932  1.00  0.00    -0.395 OA
ATOM     24  C   UNL     1     -12.675   0.949  -8.703  1.00  0.00     0.172 A 
ATOM     25  C   UNL     1     -11.229   2.349  -7.952  1.00  0.00     0.586 C 
ATOM     26  O   UNL     1     -11.342   1.001  -8.433  1.00  0.00    -0.395 OA
ATOM     27  F   UNL     1     -10.723   2.319  -6.693  1.00  0.00    -0.125 F 
ATOM     28  F   UNL     1     -10.343   3.014  -8.733  1.00  0.00    -0.125 F 
ENDBRANCH  16  18
ENDBRANCH   2  12
TORSDOF 3
ENDMDL
MODEL 9
REMARK VINA RESULT:    -7.100      5.617      9.254
REMARK INTER + INTRA:          -8.905
REMARK INTER:                  -8.633
REMARK INTRA:                  -0.272
REMARK UNBOUND:                -0.559
REMARK SMILES O=C(Nc1ccc2c(c1)OC(F)(F)O2)Nc1ccc(Cl)c(C(F)(F)F)c1
REMARK SMILES IDX 20 1 16 2 21 3 26 4 17 5 19 6 18 7 22 8 23 9 24 10 25 11
REMARK SMILES IDX 15 12 2 13 1 15 3 16 4 18 9 19 5 20 8 21 6 22 10 23 7 24
REMARK SMILES IDX 11 25 14 26 12 27 13 28
REMARK H PARENT 15 14 3 17
REMARK Flexibility Score: inf
ROOT
ATOM      1  Cl  UNL     1     -20.897  10.127 -10.285  1.00  0.00    -0.084 Cl
ATOM      2  C   UNL     1     -21.307   6.185 -12.450  1.00  0.00     0.043 A 
ATOM      3  C   UNL     1     -19.973   8.117 -11.876  1.00  0.00     0.076 A 
ATOM      4  C   UNL     1     -20.111   6.897 -12.538  1.00  0.00     0.040 A 
ATOM      5  C   UNL     1     -22.365   6.692 -11.696  1.00  0.00     0.028 A 
ATOM      6  C   UNL     1     -21.031   8.624 -11.122  1.00  0.00     0.053 A 
ATOM      7  C   UNL     1     -22.228   7.912 -11.032  1.00  0.00     0.023 A 
ENDROOT
BRANCH   3   8
ATOM      8  C   UNL     1     -18.675   8.848 -11.995  1.00  0.00     0.417 C 
ATOM      9  F   UNL     1     -18.120   9.128 -10.780  1.00  0.00    -0.166 F 
ATOM     10  F   UNL     1     -17.722   8.155 -12.683  1.00  0.00    -0.166 F 
ATOM     11  F   UNL     1     -18.783  10.046 -12.637  1.00  0.00    -0.166 F 
ENDBRANCH   3   8
BRANCH   2  12
ATOM     12  N   UNL     1     -21.447   4.949 -13.123  1.00  0.00    -0.308 N 
ATOM     13  C   UNL     1     -21.844   3.713 -12.588  1.00  0.00     0.323 C 
ATOM     14  H   UNL     1     -21.232   4.968 -14.117  1.00  0.00     0.171 HD
ATOM     15  O   UNL     1     -22.139   3.510 -11.415  1.00  0.00    -0.248 OA
ATOM     16  N   UNL     1     -21.854   2.727 -13.605  1.00  0.00    -0.308 N 
ATOM     17  H   UNL     1     -21.584   3.043 -14.533  1.00  0.00     0.171 HD
BRANCH  16  18
ATOM     18  C   UNL     1     -22.185   1.375 -13.504  1.00  0.00     0.046 A 
ATOM     19  C   UNL     1     -23.226   0.859 -14.279  1.00  0.00     0.077 A 
ATOM     20  C   UNL     1     -21.468   0.547 -12.623  1.00  0.00     0.030 A 
ATOM     21  C   UNL     1     -23.518  -0.482 -14.147  1.00  0.00     0.174 A 
ATOM     22  C   UNL     1     -21.784  -0.809 -12.508  1.00  0.00     0.053 A 
ATOM     23  O   UNL     1     -24.493  -1.158 -14.817  1.00  0.00    -0.395 OA
ATOM     24  C   UNL     1     -22.816  -1.295 -13.283  1.00  0.00     0.172 A 
ATOM     25  C   UNL     1     -24.315  -2.473 -14.272  1.00  0.00     0.586 C 
ATOM     26  O   UNL     1     -23.261  -2.582 -13.304  1.00  0.00    -0.395 OA
ATOM     27  F   UNL     1     -24.059  -3.333 -15.290  1.00  0.00    -0.125 F 
ATOM     28  F   UNL     1     -25.477  -2.862 -13.691  1.00  0.00    -0.125 F 
ENDBRANCH  16  18
ENDBRANCH   2  12
TORSDOF 3
ENDMDL
MODEL 10
REMARK VINA RESULT:    -7.096      3.762      9.729
REMARK INTER + INTRA:          -8.900
REMARK INTER:                  -8.721
REMARK INTRA:                  -0.179
REMARK UNBOUND:                -0.559
REMARK SMILES O=C(Nc1ccc2c(c1)OC(F)(F)O2)Nc1ccc(Cl)c(C(F)(F)F)c1
REMARK SMILES IDX 20 1 16 2 21 3 26 4 17 5 19 6 18 7 22 8 23 9 24 10 25 11
REMARK SMILES IDX 15 12 2 13 1 15 3 16 4 18 9 19 5 20 8 21 6 22 10 23 7 24
REMARK SMILES IDX 11 25 14 26 12 27 13 28
REMARK H PARENT 15 14 3 17
REMARK Flexibility Score: inf
ROOT
ATOM      1  Cl  UNL     1     -13.355   1.405  -6.731  1.00  0.00    -0.084 Cl
ATOM      2  C   UNL     1     -16.905   1.217  -9.515  1.00  0.00     0.043 A 
ATOM      3  C   UNL     1     -14.511   1.263  -9.195  1.00  0.00     0.076 A 
ATOM      4  C   UNL     1     -15.615   1.203 -10.045  1.00  0.00     0.040 A 
ATOM      5  C   UNL     1     -17.091   1.288  -8.135  1.00  0.00     0.028 A 
ATOM      6  C   UNL     1     -14.696   1.334  -7.814  1.00  0.00     0.053 A 
ATOM      7  C   UNL     1     -15.987   1.348  -7.284  1.00  0.00     0.023 A 
ENDROOT
BRANCH   3   8
ATOM      8  C   UNL     1     -13.145   1.244  -9.802  1.00  0.00     0.417 C 
ATOM      9  F   UNL     1     -13.180   1.173 -11.164  1.00  0.00    -0.166 F 
ATOM     10  F   UNL     1     -12.405   2.352  -9.511  1.00  0.00    -0.166 F 
ATOM     11  F   UNL     1     -12.384   0.187  -9.397  1.00  0.00    -0.166 F 
ENDBRANCH   3   8
BRANCH   2  12
ATOM     12  N   UNL     1     -18.025   1.159 -10.378  1.00  0.00    -0.308 N 
ATOM     13  C   UNL     1     -18.904   0.083 -10.582  1.00  0.00     0.323 C 
ATOM     14  H   UNL     1     -18.208   2.004 -10.911  1.00  0.00     0.171 HD
ATOM     15  O   UNL     1     -18.832  -1.008 -10.024  1.00  0.00    -0.248 OA
ATOM     16  N   UNL     1     -19.893   0.439 -11.530  1.00  0.00    -0.308 N 
ATOM     17  H   UNL     1     -19.826   1.381 -11.910  1.00  0.00     0.171 HD
BRANCH  16  18
ATOM     18  C   UNL     1     -20.951  -0.330 -12.017  1.00  0.00     0.046 A 
ATOM     19  C   UNL     1     -21.377  -0.163 -13.337  1.00  0.00     0.077 A 
ATOM     20  C   UNL     1     -21.577  -1.264 -11.174  1.00  0.00     0.030 A 
ATOM     21  C   UNL     1     -22.426  -0.944 -13.774  1.00  0.00     0.174 A 
ATOM     22  C   UNL     1     -22.638  -2.044 -11.642  1.00  0.00     0.053 A 
ATOM     23  O   UNL     1     -22.974  -0.921 -15.021  1.00  0.00    -0.395 OA
ATOM     24  C   UNL     1     -23.041  -1.860 -12.949  1.00  0.00     0.172 A 
ATOM     25  C   UNL     1     -23.992  -1.920 -14.873  1.00  0.00     0.586 C 
ATOM     26  O   UNL     1     -24.050  -2.527 -13.574  1.00  0.00    -0.395 OA
ATOM     27  F   UNL     1     -23.783  -2.892 -15.797  1.00  0.00    -0.125 F 
ATOM     28  F   UNL     1     -25.196  -1.356 -15.141  1.00  0.00    -0.125 F 
ENDBRANCH  16  18
ENDBRANCH   2  12
TORSDOF 3
ENDMDL
MODEL 11
REMARK VINA RESULT:    -7.045      3.572      9.640
REMARK INTER + INTRA:          -8.840
REMARK INTER:                  -8.578
REMARK INTRA:                  -0.262
REMARK UNBOUND:                -0.559
REMARK SMILES O=C(Nc1ccc2c(c1)OC(F)(F)O2)Nc1ccc(Cl)c(C(F)(F)F)c1
REMARK SMILES IDX 20 1 16 2 21 3 26 4 17 5 19 6 18 7 22 8 23 9 24 10 25 11
REMARK SMILES IDX 15 12 2 13 1 15 3 16 4 18 9 19 5 20 8 21 6 22 10 23 7 24
REMARK SMILES IDX 11 25 14 26 12 27 13 28
REMARK H PARENT 15 14 3 17
REMARK Flexibility Score: inf
ROOT
ATOM      1  Cl  UNL     1     -15.684   1.670  -7.221  1.00  0.00    -0.084 Cl
ATOM      2  C   UNL     1     -18.610   1.446 -10.653  1.00  0.00     0.043 A 
ATOM      3  C   UNL     1     -16.357   1.189  -9.817  1.00  0.00     0.076 A 
ATOM      4  C   UNL     1     -17.270   1.121 -10.870  1.00  0.00     0.040 A 
ATOM      5  C   UNL     1     -19.036   1.836  -9.384  1.00  0.00     0.028 A 
ATOM      6  C   UNL     1     -16.784   1.578  -8.548  1.00  0.00     0.053 A 
ATOM      7  C   UNL     1     -18.123   1.903  -8.331  1.00  0.00     0.023 A 
ENDROOT
BRANCH   3   8
ATOM      8  C   UNL     1     -14.931   0.831 -10.090  1.00  0.00     0.417 C 
ATOM      9  F   UNL     1     -14.607  -0.410  -9.627  1.00  0.00    -0.166 F 
ATOM     10  F   UNL     1     -14.618   0.823 -11.417  1.00  0.00    -0.166 F 
ATOM     11  F   UNL     1     -14.037   1.685  -9.514  1.00  0.00    -0.166 F 
ENDBRANCH   3   8
BRANCH   2  12
ATOM     12  N   UNL     1     -19.535   1.380 -11.721  1.00  0.00    -0.308 N 
ATOM     13  C   UNL     1     -20.668   0.558 -11.833  1.00  0.00     0.323 C 
ATOM     14  H   UNL     1     -19.349   2.008 -12.498  1.00  0.00     0.171 HD
ATOM     15  O   UNL     1     -21.041  -0.256 -10.993  1.00  0.00    -0.248 OA
ATOM     16  N   UNL     1     -21.324   0.804 -13.063  1.00  0.00    -0.308 N 
ATOM     17  H   UNL     1     -20.899   1.509 -13.661  1.00  0.00     0.171 HD
BRANCH  16  18
ATOM     18  C   UNL     1     -22.481   0.208 -13.569  1.00  0.00     0.046 A 
ATOM     19  C   UNL     1     -23.606   0.994 -13.830  1.00  0.00     0.077 A 
ATOM     20  C   UNL     1     -22.502  -1.177 -13.810  1.00  0.00     0.030 A 
ATOM     21  C   UNL     1     -24.726   0.362 -14.328  1.00  0.00     0.174 A 
ATOM     22  C   UNL     1     -23.649  -1.793 -14.316  1.00  0.00     0.053 A 
ATOM     23  O   UNL     1     -25.909   0.961 -14.642  1.00  0.00    -0.395 OA
ATOM     24  C   UNL     1     -24.747  -0.996 -14.565  1.00  0.00     0.172 A 
ATOM     25  C   UNL     1     -26.660  -0.174 -15.095  1.00  0.00     0.586 C 
ATOM     26  O   UNL     1     -25.945  -1.418 -15.057  1.00  0.00    -0.395 OA
ATOM     27  F   UNL     1     -27.063   0.055 -16.370  1.00  0.00    -0.125 F 
ATOM     28  F   UNL     1     -27.773  -0.291 -14.329  1.00  0.00    -0.125 F 
ENDBRANCH  16  18
ENDBRANCH   2  12
TORSDOF 3
ENDMDL
MODEL 12
REMARK VINA RESULT:    -6.940      2.204      2.846
REMARK INTER + INTRA:          -8.716
REMARK INTER:                  -8.204
REMARK INTRA:                  -0.512
REMARK UNBOUND:                -0.559
REMARK SMILES O=C(Nc1ccc2c(c1)OC(F)(F)O2)Nc1ccc(Cl)c(C(F)(F)F)c1
REMARK SMILES IDX 20 1 16 2 21 3 26 4 17 5 19 6 18 7 22 8 23 9 24 10 25 11
REMARK SMILES IDX 15 12 2 13 1 15 3 16 4 18 9 19 5 20 8 21 6 22 10 23 7 24
REMARK SMILES IDX 11 25 14 26 12 27 13 28
REMARK H PARENT 15 14 3 17
REMARK Flexibility Score: inf
ROOT
ATOM      1  Cl  UNL     1     -27.793  -2.665 -14.131  1.00  0.00    -0.084 Cl
ATOM      2  C   UNL     1     -23.481  -1.398 -13.689  1.00  0.00     0.043 A 
ATOM      3  C   UNL     1     -25.748  -0.876 -14.343  1.00  0.00     0.076 A 
ATOM      4  C   UNL     1     -24.414  -0.496 -14.200  1.00  0.00     0.040 A 
ATOM      5  C   UNL     1     -23.884  -2.682 -13.319  1.00  0.00     0.028 A 
ATOM      6  C   UNL     1     -26.151  -2.160 -13.973  1.00  0.00     0.053 A 
ATOM      7  C   UNL     1     -25.218  -3.063 -13.461  1.00  0.00     0.023 A 
ENDROOT
BRANCH   3   8
ATOM      8  C   UNL     1     -26.716   0.121 -14.893  1.00  0.00     0.417 C 
ATOM      9  F   UNL     1     -27.320  -0.314 -16.036  1.00  0.00    -0.166 F 
ATOM     10  F   UNL     1     -27.731   0.425 -14.033  1.00  0.00    -0.166 F 
ATOM     11  F   UNL     1     -26.143   1.317 -15.210  1.00  0.00    -0.166 F 
ENDBRANCH   3   8
BRANCH   2  12
ATOM     12  N   UNL     1     -22.128  -1.013 -13.546  1.00  0.00    -0.308 N 
ATOM     13  C   UNL     1     -21.404  -0.821 -12.358  1.00  0.00     0.323 C 
ATOM     14  H   UNL     1     -21.625  -0.858 -14.416  1.00  0.00     0.171 HD
ATOM     15  O   UNL     1     -21.851  -0.963 -11.224  1.00  0.00    -0.248 OA
ATOM     16  N   UNL     1     -20.075  -0.437 -12.658  1.00  0.00    -0.308 N 
ATOM     17  H   UNL     1     -19.847  -0.358 -13.647  1.00  0.00     0.171 HD
BRANCH  16  18
ATOM     18  C   UNL     1     -19.031  -0.150 -11.778  1.00  0.00     0.046 A 
ATOM     19  C   UNL     1     -18.291  -1.194 -11.218  1.00  0.00     0.077 A 
ATOM     20  C   UNL     1     -18.735   1.188 -11.462  1.00  0.00     0.030 A 
ATOM     21  C   UNL     1     -17.269  -0.863 -10.353  1.00  0.00     0.174 A 
ATOM     22  C   UNL     1     -17.694   1.497 -10.583  1.00  0.00     0.053 A 
ATOM     23  O   UNL     1     -16.446  -1.741  -9.716  1.00  0.00    -0.395 OA
ATOM     24  C   UNL     1     -16.978   0.448 -10.043  1.00  0.00     0.172 A 
ATOM     25  C   UNL     1     -15.618  -0.829  -8.980  1.00  0.00     0.586 C 
ATOM     26  O   UNL     1     -15.936   0.557  -9.175  1.00  0.00    -0.395 OA
ATOM     27  F   UNL     1     -14.325  -1.032  -9.339  1.00  0.00    -0.125 F 
ATOM     28  F   UNL     1     -15.724  -1.117  -7.659  1.00  0.00    -0.125 F 
ENDBRANCH  16  18
ENDBRANCH   2  12
TORSDOF 3
ENDMDL
MODEL 13
REMARK VINA RESULT:    -6.881      2.132      2.638
REMARK INTER + INTRA:          -8.647
REMARK INTER:                  -8.382
REMARK INTRA:                  -0.265
REMARK UNBOUND:                -0.559
REMARK SMILES O=C(Nc1ccc2c(c1)OC(F)(F)O2)Nc1ccc(Cl)c(C(F)(F)F)c1
REMARK SMILES IDX 20 1 16 2 21 3 26 4 17 5 19 6 18 7 22 8 23 9 24 10 25 11
REMARK SMILES IDX 15 12 2 13 1 15 3 16 4 18 9 19 5 20 8 21 6 22 10 23 7 24
REMARK SMILES IDX 11 25 14 26 12 27 13 28
REMARK H PARENT 15 14 3 17
REMARK Flexibility Score: inf
ROOT
ATOM      1  Cl  UNL     1     -27.002  -0.274 -15.477  1.00  0.00    -0.084 Cl
ATOM      2  C   UNL     1     -23.018   1.174 -13.919  1.00  0.00     0.043 A 
ATOM      3  C   UNL     1     -25.237   1.667 -14.737  1.00  0.00     0.076 A 
ATOM      4  C   UNL     1     -24.003   2.102 -14.253  1.00  0.00     0.040 A 
ATOM      5  C   UNL     1     -23.267  -0.191 -14.066  1.00  0.00     0.028 A 
ATOM      6  C   UNL     1     -25.486   0.303 -14.885  1.00  0.00     0.053 A 
ATOM      7  C   UNL     1     -24.501  -0.627 -14.550  1.00  0.00     0.023 A 
ENDROOT
BRANCH   3   8
ATOM      8  C   UNL     1     -26.267   2.694 -15.083  1.00  0.00     0.417 C 
ATOM      9  F   UNL     1     -27.398   2.573 -14.330  1.00  0.00    -0.166 F 
ATOM     10  F   UNL     1     -25.838   3.976 -14.901  1.00  0.00    -0.166 F 
ATOM     11  F   UNL     1     -26.680   2.634 -16.382  1.00  0.00    -0.166 F 
ENDBRANCH   3   8
BRANCH   2  12
ATOM     12  N   UNL     1     -21.766   1.615 -13.430  1.00  0.00    -0.308 N 
ATOM     13  C   UNL     1     -21.019   1.087 -12.365  1.00  0.00     0.323 C 
ATOM     14  H   UNL     1     -21.365   2.413 -13.916  1.00  0.00     0.171 HD
ATOM     15  O   UNL     1     -21.350   0.130 -11.672  1.00  0.00    -0.248 OA
ATOM     16  N   UNL     1     -19.820   1.823 -12.203  1.00  0.00    -0.308 N 
ATOM     17  H   UNL     1     -19.680   2.594 -12.853  1.00  0.00     0.171 HD
BRANCH  16  18
ATOM     18  C   UNL     1     -18.801   1.635 -11.269  1.00  0.00     0.046 A 
ATOM     19  C   UNL     1     -17.564   1.137 -11.686  1.00  0.00     0.077 A 
ATOM     20  C   UNL     1     -19.029   1.946  -9.917  1.00  0.00     0.030 A 
ATOM     21  C   UNL     1     -16.586   0.967 -10.729  1.00  0.00     0.174 A 
ATOM     22  C   UNL     1     -18.021   1.764  -8.966  1.00  0.00     0.053 A 
ATOM     23  O   UNL     1     -15.327   0.496 -10.947  1.00  0.00    -0.395 OA
ATOM     24  C   UNL     1     -16.809   1.272  -9.403  1.00  0.00     0.172 A 
ATOM     25  C   UNL     1     -14.800   0.544  -9.614  1.00  0.00     0.586 C 
ATOM     26  O   UNL     1     -15.718   1.032  -8.625  1.00  0.00    -0.395 OA
ATOM     27  F   UNL     1     -13.698   1.337  -9.611  1.00  0.00    -0.125 F 
ATOM     28  F   UNL     1     -14.405  -0.704  -9.259  1.00  0.00    -0.125 F 
ENDBRANCH  16  18
ENDBRANCH   2  12
TORSDOF 3
ENDMDL
MODEL 14
REMARK VINA RESULT:    -6.850      4.236      9.854
REMARK INTER + INTRA:          -8.610
REMARK INTER:                  -8.035
REMARK INTRA:                  -0.576
REMARK UNBOUND:                -0.559
REMARK SMILES O=C(Nc1ccc2c(c1)OC(F)(F)O2)Nc1ccc(Cl)c(C(F)(F)F)c1
REMARK SMILES IDX 20 1 16 2 21 3 26 4 17 5 19 6 18 7 22 8 23 9 24 10 25 11
REMARK SMILES IDX 15 12 2 13 1 15 3 16 4 18 9 19 5 20 8 21 6 22 10 23 7 24
REMARK SMILES IDX 11 25 14 26 12 27 13 28
REMARK H PARENT 15 14 3 17
REMARK Flexibility Score: inf
ROOT
ATOM      1  Cl  UNL     1     -17.111   1.464  -9.658  1.00  0.00    -0.084 Cl
ATOM      2  C   UNL     1     -20.491   0.073 -12.310  1.00  0.00     0.043 A 
ATOM      3  C   UNL     1     -18.724  -0.445 -10.745  1.00  0.00     0.076 A 
ATOM      4  C   UNL     1     -19.771  -0.862 -11.566  1.00  0.00     0.040 A 
ATOM      5  C   UNL     1     -20.164   1.427 -12.230  1.00  0.00     0.028 A 
ATOM      6  C   UNL     1     -18.397   0.909 -10.665  1.00  0.00     0.053 A 
ATOM      7  C   UNL     1     -19.117   1.845 -11.409  1.00  0.00     0.023 A 
ENDROOT
BRANCH   3   8
ATOM      8  C   UNL     1     -17.978  -1.478  -9.963  1.00  0.00     0.417 C 
ATOM      9  F   UNL     1     -18.492  -2.730 -10.131  1.00  0.00    -0.166 F 
ATOM     10  F   UNL     1     -16.661  -1.571 -10.304  1.00  0.00    -0.166 F 
ATOM     11  F   UNL     1     -17.987  -1.252  -8.618  1.00  0.00    -0.166 F 
ENDBRANCH   3   8
BRANCH   2  12
ATOM     12  N   UNL     1     -21.551  -0.351 -13.144  1.00  0.00    -0.308 N 
ATOM     13  C   UNL     1     -22.897  -0.552 -12.797  1.00  0.00     0.323 C 
ATOM     14  H   UNL     1     -21.299  -0.530 -14.112  1.00  0.00     0.171 HD
ATOM     15  O   UNL     1     -23.374  -0.385 -11.679  1.00  0.00    -0.248 OA
ATOM     16  N   UNL     1     -23.630  -0.979 -13.930  1.00  0.00    -0.308 N 
ATOM     17  H   UNL     1     -23.100  -1.075 -14.793  1.00  0.00     0.171 HD
BRANCH  16  18
ATOM     18  C   UNL     1     -24.988  -1.288 -14.024  1.00  0.00     0.046 A 
ATOM     19  C   UNL     1     -25.420  -2.592 -13.771  1.00  0.00     0.077 A 
ATOM     20  C   UNL     1     -25.908  -0.283 -14.374  1.00  0.00     0.030 A 
ATOM     21  C   UNL     1     -26.770  -2.851 -13.876  1.00  0.00     0.174 A 
ATOM     22  C   UNL     1     -27.271  -0.572 -14.473  1.00  0.00     0.053 A 
ATOM     23  O   UNL     1     -27.372  -4.055 -13.667  1.00  0.00    -0.395 OA
ATOM     24  C   UNL     1     -27.672  -1.867 -14.218  1.00  0.00     0.172 A 
ATOM     25  C   UNL     1     -28.740  -3.706 -13.918  1.00  0.00     0.586 C 
ATOM     26  O   UNL     1     -28.952  -2.330 -14.265  1.00  0.00    -0.395 OA
ATOM     27  F   UNL     1     -29.470  -3.991 -12.810  1.00  0.00    -0.125 F 
ATOM     28  F   UNL     1     -29.208  -4.484 -14.926  1.00  0.00    -0.125 F 
ENDBRANCH  16  18
ENDBRANCH   2  12
TORSDOF 3
ENDMDL
MODEL 15
REMARK VINA RESULT:    -6.849      4.105     10.002
REMARK INTER + INTRA:          -8.610
REMARK INTER:                  -8.175
REMARK INTRA:                  -0.435
REMARK UNBOUND:                -0.559
REMARK SMILES O=C(Nc1ccc2c(c1)OC(F)(F)O2)Nc1ccc(Cl)c(C(F)(F)F)c1
REMARK SMILES IDX 20 1 16 2 21 3 26 4 17 5 19 6 18 7 22 8 23 9 24 10 25 11
REMARK SMILES IDX 15 12 2 13 1 15 3 16 4 18 9 19 5 20 8 21 6 22 10 23 7 24
REMARK SMILES IDX 11 25 14 26 12 27 13 28
REMARK H PARENT 15 14 3 17
REMARK Flexibility Score: inf
ROOT
ATOM      1  Cl  UNL     1     -11.635  -0.913  -8.109  1.00  0.00    -0.084 Cl
ATOM      2  C   UNL     1     -16.004  -0.358  -9.105  1.00  0.00     0.043 A 
ATOM      3  C   UNL     1     -13.785   0.572  -8.882  1.00  0.00     0.076 A 
ATOM      4  C   UNL     1     -15.136   0.731  -9.189  1.00  0.00     0.040 A 
ATOM      5  C   UNL     1     -15.520  -1.607  -8.715  1.00  0.00     0.028 A 
ATOM      6  C   UNL     1     -13.301  -0.677  -8.493  1.00  0.00     0.053 A 
ATOM      7  C   UNL     1     -14.168  -1.767  -8.408  1.00  0.00     0.023 A 
ENDROOT
BRANCH   3   8
ATOM      8  C   UNL     1     -12.888   1.763  -8.987  1.00  0.00     0.417 C 
ATOM      9  F   UNL     1     -11.968   1.637  -9.987  1.00  0.00    -0.166 F 
ATOM     10  F   UNL     1     -13.555   2.925  -9.243  1.00  0.00    -0.166 F 
ATOM     11  F   UNL     1     -12.169   2.003  -7.852  1.00  0.00    -0.166 F 
ENDBRANCH   3   8
BRANCH   2  12
ATOM     12  N   UNL     1     -17.375  -0.196  -9.414  1.00  0.00    -0.308 N 
ATOM     13  C   UNL     1     -18.125  -0.864 -10.396  1.00  0.00     0.323 C 
ATOM     14  H   UNL     1     -17.870   0.490  -8.851  1.00  0.00     0.171 HD
ATOM     15  O   UNL     1     -17.689  -1.719 -11.162  1.00  0.00    -0.248 OA
ATOM     16  N   UNL     1     -19.464  -0.406 -10.377  1.00  0.00    -0.308 N 
ATOM     17  H   UNL     1     -19.680   0.309  -9.686  1.00  0.00     0.171 HD
BRANCH  16  18
ATOM     18  C   UNL     1     -20.533  -0.804 -11.181  1.00  0.00     0.046 A 
ATOM     19  C   UNL     1     -20.688  -0.246 -12.452  1.00  0.00     0.077 A 
ATOM     20  C   UNL     1     -21.443  -1.764 -10.704  1.00  0.00     0.030 A 
ATOM     21  C   UNL     1     -21.758  -0.669 -13.211  1.00  0.00     0.174 A 
ATOM     22  C   UNL     1     -22.520  -2.176 -11.493  1.00  0.00     0.053 A 
ATOM     23  O   UNL     1     -22.068  -0.239 -14.466  1.00  0.00    -0.395 OA
ATOM     24  C   UNL     1     -22.651  -1.609 -12.744  1.00  0.00     0.172 A 
ATOM     25  C   UNL     1     -23.248  -1.015 -14.720  1.00  0.00     0.586 C 
ATOM     26  O   UNL     1     -23.631  -1.887 -13.647  1.00  0.00    -0.395 OA
ATOM     27  F   UNL     1     -23.043  -1.762 -15.834  1.00  0.00    -0.125 F 
ATOM     28  F   UNL     1     -24.275  -0.169 -14.978  1.00  0.00    -0.125 F 
ENDBRANCH  16  18
ENDBRANCH   2  12
TORSDOF 3
ENDMDL
MODEL 16
REMARK VINA RESULT:    -6.778      2.242      2.939
REMARK INTER + INTRA:          -8.526
REMARK INTER:                  -8.093
REMARK INTRA:                  -0.433
REMARK UNBOUND:                -0.559
REMARK SMILES O=C(Nc1ccc2c(c1)OC(F)(F)O2)Nc1ccc(Cl)c(C(F)(F)F)c1
REMARK SMILES IDX 20 1 16 2 21 3 26 4 17 5 19 6 18 7 22 8 23 9 24 10 25 11
REMARK SMILES IDX 15 12 2 13 1 15 3 16 4 18 9 19 5 20 8 21 6 22 10 23 7 24
REMARK SMILES IDX 11 25 14 26 12 27 13 28
REMARK H PARENT 15 14 3 17
REMARK Flexibility Score: inf
ROOT
ATOM      1  Cl  UNL     1     -28.912   2.555 -15.709  1.00  0.00    -0.084 Cl
ATOM      2  C   UNL     1     -24.559   2.786 -14.531  1.00  0.00     0.043 A 
ATOM      3  C   UNL     1     -26.459   1.468 -15.232  1.00  0.00     0.076 A 
ATOM      4  C   UNL     1     -25.115   1.552 -14.868  1.00  0.00     0.040 A 
ATOM      5  C   UNL     1     -25.347   3.937 -14.560  1.00  0.00     0.028 A 
ATOM      6  C   UNL     1     -27.247   2.619 -15.261  1.00  0.00     0.053 A 
ATOM      7  C   UNL     1     -26.691   3.854 -14.924  1.00  0.00     0.023 A 
ENDROOT
BRANCH   3   8
ATOM      8  C   UNL     1     -27.016   0.127 -15.587  1.00  0.00     0.417 C 
ATOM      9  F   UNL     1     -27.455   0.070 -16.878  1.00  0.00    -0.166 F 
ATOM     10  F   UNL     1     -26.113  -0.888 -15.460  1.00  0.00    -0.166 F 
ATOM     11  F   UNL     1     -28.081  -0.240 -14.818  1.00  0.00    -0.166 F 
ENDBRANCH   3   8
BRANCH   2  12
ATOM     12  N   UNL     1     -23.196   2.871 -14.160  1.00  0.00    -0.308 N 
ATOM     13  C   UNL     1     -22.583   2.368 -13.000  1.00  0.00     0.323 C 
ATOM     14  H   UNL     1     -22.595   3.357 -14.819  1.00  0.00     0.171 HD
ATOM     15  O   UNL     1     -23.156   1.759 -12.102  1.00  0.00    -0.248 OA
ATOM     16  N   UNL     1     -21.200   2.669 -13.016  1.00  0.00    -0.308 N 
ATOM     17  H   UNL     1     -20.865   3.182 -13.828  1.00  0.00     0.171 HD
BRANCH  16  18
ATOM     18  C   UNL     1     -20.229   2.354 -12.064  1.00  0.00     0.046 A 
ATOM     19  C   UNL     1     -19.157   1.530 -12.415  1.00  0.00     0.077 A 
ATOM     20  C   UNL     1     -20.339   2.871 -10.761  1.00  0.00     0.030 A 
ATOM     21  C   UNL     1     -18.223   1.246 -11.442  1.00  0.00     0.174 A 
ATOM     22  C   UNL     1     -19.378   2.568  -9.793  1.00  0.00     0.053 A 
ATOM     23  O   UNL     1     -17.117   0.465 -11.599  1.00  0.00    -0.395 OA
ATOM     24  C   UNL     1     -18.330   1.752 -10.165  1.00  0.00     0.172 A 
ATOM     25  C   UNL     1     -16.557   0.544 -10.281  1.00  0.00     0.586 C 
ATOM     26  O   UNL     1     -17.306   1.353  -9.361  1.00  0.00    -0.395 OA
ATOM     27  F   UNL     1     -15.299   1.045 -10.374  1.00  0.00    -0.125 F 
ATOM     28  F   UNL     1     -16.461  -0.710  -9.775  1.00  0.00    -0.125 F 
ENDBRANCH  16  18
ENDBRANCH   2  12
TORSDOF 3
ENDMDL
MODEL 17
REMARK VINA RESULT:    -6.746      2.552      3.517
REMARK INTER + INTRA:          -8.488
REMARK INTER:                  -8.055
REMARK INTRA:                  -0.433
REMARK UNBOUND:                -0.559
REMARK SMILES O=C(Nc1ccc2c(c1)OC(F)(F)O2)Nc1ccc(Cl)c(C(F)(F)F)c1
REMARK SMILES IDX 20 1 16 2 21 3 26 4 17 5 19 6 18 7 22 8 23 9 24 10 25 11
REMARK SMILES IDX 15 12 2 13 1 15 3 16 4 18 9 19 5 20 8 21 6 22 10 23 7 24
REMARK SMILES IDX 11 25 14 26 12 27 13 28
REMARK H PARENT 15 14 3 17
REMARK Flexibility Score: inf
ROOT
ATOM      1  Cl  UNL     1     -30.065  -0.948 -14.873  1.00  0.00    -0.084 Cl
ATOM      2  C   UNL     1     -25.607  -0.312 -14.533  1.00  0.00     0.043 A 
ATOM      3  C   UNL     1     -27.553  -1.682 -14.114  1.00  0.00     0.076 A 
ATOM      4  C   UNL     1     -26.177  -1.476 -14.016  1.00  0.00     0.040 A 
ATOM      5  C   UNL     1     -26.414   0.644 -15.150  1.00  0.00     0.028 A 
ATOM      6  C   UNL     1     -28.359  -0.726 -14.731  1.00  0.00     0.053 A 
ATOM      7  C   UNL     1     -27.790   0.438 -15.248  1.00  0.00     0.023 A 
ENDROOT
BRANCH   3   8
ATOM      8  C   UNL     1     -28.124  -2.943 -13.548  1.00  0.00     0.417 C 
ATOM      9  F   UNL     1     -28.687  -3.735 -14.506  1.00  0.00    -0.166 F 
ATOM     10  F   UNL     1     -27.200  -3.724 -12.919  1.00  0.00    -0.166 F 
ATOM     11  F   UNL     1     -29.104  -2.728 -12.624  1.00  0.00    -0.166 F 
ENDBRANCH   3   8
BRANCH   2  12
ATOM     12  N   UNL     1     -24.212  -0.102 -14.432  1.00  0.00    -0.308 N 
ATOM     13  C   UNL     1     -23.478   0.300 -13.304  1.00  0.00     0.323 C 
ATOM     14  H   UNL     1     -23.684  -0.264 -15.286  1.00  0.00     0.171 HD
ATOM     15  O   UNL     1     -23.951   0.538 -12.198  1.00  0.00    -0.248 OA
ATOM     16  N   UNL     1     -22.103   0.392 -13.630  1.00  0.00    -0.308 N 
ATOM     17  H   UNL     1     -21.857   0.164 -14.591  1.00  0.00     0.171 HD
BRANCH  16  18
ATOM     18  C   UNL     1     -21.035   0.754 -12.809  1.00  0.00     0.046 A 
ATOM     19  C   UNL     1     -19.975  -0.136 -12.619  1.00  0.00     0.077 A 
ATOM     20  C   UNL     1     -21.036   2.011 -12.179  1.00  0.00     0.030 A 
ATOM     21  C   UNL     1     -18.941   0.265 -11.799  1.00  0.00     0.174 A 
ATOM     22  C   UNL     1     -19.977   2.393 -11.352  1.00  0.00     0.053 A 
ATOM     23  O   UNL     1     -17.830  -0.464 -11.499  1.00  0.00    -0.395 OA
ATOM     24  C   UNL     1     -18.942   1.497 -11.181  1.00  0.00     0.172 A 
ATOM     25  C   UNL     1     -17.149   0.451 -10.629  1.00  0.00     0.586 C 
ATOM     26  O   UNL     1     -17.833   1.695 -10.418  1.00  0.00    -0.395 OA
ATOM     27  F   UNL     1     -15.924   0.713 -11.151  1.00  0.00    -0.125 F 
ATOM     28  F   UNL     1     -16.962  -0.150  -9.429  1.00  0.00    -0.125 F 
ENDBRANCH  16  18
ENDBRANCH   2  12
TORSDOF 3
ENDMDL
MODEL 18
REMARK VINA RESULT:    -6.647      1.792      2.248
REMARK INTER + INTRA:          -8.372
REMARK INTER:                  -7.844
REMARK INTRA:                  -0.528
REMARK UNBOUND:                -0.559
REMARK SMILES O=C(Nc1ccc2c(c1)OC(F)(F)O2)Nc1ccc(Cl)c(C(F)(F)F)c1
REMARK SMILES IDX 20 1 16 2 21 3 26 4 17 5 19 6 18 7 22 8 23 9 24 10 25 11
REMARK SMILES IDX 15 12 2 13 1 15 3 16 4 18 9 19 5 20 8 21 6 22 10 23 7 24
REMARK SMILES IDX 11 25 14 26 12 27 13 28
REMARK H PARENT 15 14 3 17
REMARK Flexibility Score: inf
ROOT
ATOM      1  Cl  UNL     1     -26.882  -0.511 -14.834  1.00  0.00    -0.084 Cl
ATOM      2  C   UNL     1     -22.505  -0.538 -13.723  1.00  0.00     0.043 A 
ATOM      3  C   UNL     1     -24.688  -1.569 -13.612  1.00  0.00     0.076 A 
ATOM      4  C   UNL     1     -23.334  -1.568 -13.276  1.00  0.00     0.040 A 
ATOM      5  C   UNL     1     -23.030   0.489 -14.507  1.00  0.00     0.028 A 
ATOM      6  C   UNL     1     -25.213  -0.542 -14.396  1.00  0.00     0.053 A 
ATOM      7  C   UNL     1     -24.385   0.488 -14.843  1.00  0.00     0.023 A 
ENDROOT
BRANCH   3   8
ATOM      8  C   UNL     1     -25.542  -2.690 -13.114  1.00  0.00     0.417 C 
ATOM      9  F   UNL     1     -26.180  -3.348 -14.125  1.00  0.00    -0.166 F 
ATOM     10  F   UNL     1     -24.844  -3.645 -12.436  1.00  0.00    -0.166 F 
ATOM     11  F   UNL     1     -26.525  -2.287 -12.259  1.00  0.00    -0.166 F 
ENDBRANCH   3   8
BRANCH   2  12
ATOM     12  N   UNL     1     -21.133  -0.536 -13.381  1.00  0.00    -0.308 N 
ATOM     13  C   UNL     1     -20.556  -0.313 -12.120  1.00  0.00     0.323 C 
ATOM     14  H   UNL     1     -20.492  -0.719 -14.149  1.00  0.00     0.171 HD
ATOM     15  O   UNL     1     -21.177  -0.078 -11.088  1.00  0.00    -0.248 OA
ATOM     16  N   UNL     1     -19.146  -0.398 -12.211  1.00  0.00    -0.308 N 
ATOM     17  H   UNL     1     -18.771  -0.599 -13.136  1.00  0.00     0.171 HD
BRANCH  16  18
ATOM     18  C   UNL     1     -18.196  -0.243 -11.200  1.00  0.00     0.046 A 
ATOM     19  C   UNL     1     -17.884  -1.325 -10.373  1.00  0.00     0.077 A 
ATOM     20  C   UNL     1     -17.564   1.000 -11.025  1.00  0.00     0.030 A 
ATOM     21  C   UNL     1     -16.940  -1.125  -9.388  1.00  0.00     0.174 A 
ATOM     22  C   UNL     1     -16.610   1.176 -10.019  1.00  0.00     0.053 A 
ATOM     23  O   UNL     1     -16.510  -2.057  -8.492  1.00  0.00    -0.395 OA
ATOM     24  C   UNL     1     -16.320   0.094  -9.215  1.00  0.00     0.172 A 
ATOM     25  C   UNL     1     -15.559  -1.280  -7.750  1.00  0.00     0.586 C 
ATOM     26  O   UNL     1     -15.422   0.078  -8.191  1.00  0.00    -0.395 OA
ATOM     27  F   UNL     1     -14.348  -1.886  -7.830  1.00  0.00    -0.125 F 
ATOM     28  F   UNL     1     -15.928  -1.277  -6.445  1.00  0.00    -0.125 F 
ENDBRANCH  16  18
ENDBRANCH   2  12
TORSDOF 3
ENDMDL
MODEL 19
REMARK VINA RESULT:    -6.565      3.193      4.389
REMARK INTER + INTRA:          -8.276
REMARK INTER:                  -7.709
REMARK INTRA:                  -0.567
REMARK UNBOUND:                -0.559
REMARK SMILES O=C(Nc1ccc2c(c1)OC(F)(F)O2)Nc1ccc(Cl)c(C(F)(F)F)c1
REMARK SMILES IDX 20 1 16 2 21 3 26 4 17 5 19 6 18 7 22 8 23 9 24 10 25 11
REMARK SMILES IDX 15 12 2 13 1 15 3 16 4 18 9 19 5 20 8 21 6 22 10 23 7 24
REMARK SMILES IDX 11 25 14 26 12 27 13 28
REMARK H PARENT 15 14 3 17
REMARK Flexibility Score: inf
ROOT
ATOM      1  Cl  UNL     1     -30.073  -2.983 -13.862  1.00  0.00    -0.084 Cl
ATOM      2  C   UNL     1     -25.841  -1.427 -14.123  1.00  0.00     0.043 A 
ATOM      3  C   UNL     1     -28.219  -1.032 -14.292  1.00  0.00     0.076 A 
ATOM      4  C   UNL     1     -26.908  -0.562 -14.368  1.00  0.00     0.040 A 
ATOM      5  C   UNL     1     -26.086  -2.762 -13.800  1.00  0.00     0.028 A 
ATOM      6  C   UNL     1     -28.464  -2.367 -13.969  1.00  0.00     0.053 A 
ATOM      7  C   UNL     1     -27.398  -3.233 -13.724  1.00  0.00     0.023 A 
ENDROOT
BRANCH   3   8
ATOM      8  C   UNL     1     -29.334  -0.073 -14.560  1.00  0.00     0.417 C 
ATOM      9  F   UNL     1     -28.886   1.192 -14.808  1.00  0.00    -0.166 F 
ATOM     10  F   UNL     1     -30.095  -0.413 -15.639  1.00  0.00    -0.166 F 
ATOM     11  F   UNL     1     -30.212   0.044 -13.522  1.00  0.00    -0.166 F 
ENDBRANCH   3   8
BRANCH   2  12
ATOM     12  N   UNL     1     -24.511  -0.951 -14.202  1.00  0.00    -0.308 N 
ATOM     13  C   UNL     1     -23.710  -0.449 -13.164  1.00  0.00     0.323 C 
ATOM     14  H   UNL     1     -24.093  -0.981 -15.128  1.00  0.00     0.171 HD
ATOM     15  O   UNL     1     -24.053  -0.342 -11.991  1.00  0.00    -0.248 OA
ATOM     16  N   UNL     1     -22.440  -0.079 -13.670  1.00  0.00    -0.308 N 
ATOM     17  H   UNL     1     -22.299  -0.225 -14.667  1.00  0.00     0.171 HD
BRANCH  16  18
ATOM     18  C   UNL     1     -21.352   0.460 -12.982  1.00  0.00     0.046 A 
ATOM     19  C   UNL     1     -20.264  -0.356 -12.660  1.00  0.00     0.077 A 
ATOM     20  C   UNL     1     -21.361   1.818 -12.620  1.00  0.00     0.030 A 
ATOM     21  C   UNL     1     -19.212   0.220 -11.980  1.00  0.00     0.174 A 
ATOM     22  C   UNL     1     -20.281   2.377 -11.932  1.00  0.00     0.053 A 
ATOM     23  O   UNL     1     -18.073  -0.415 -11.584  1.00  0.00    -0.395 OA
ATOM     24  C   UNL     1     -19.220   1.551 -11.625  1.00  0.00     0.172 A 
ATOM     25  C   UNL     1     -17.383   0.669 -10.946  1.00  0.00     0.586 C 
ATOM     26  O   UNL     1     -18.088   1.919 -10.963  1.00  0.00    -0.395 OA
ATOM     27  F   UNL     1     -16.184   0.839 -11.559  1.00  0.00    -0.125 F 
ATOM     28  F   UNL     1     -17.137   0.327  -9.657  1.00  0.00    -0.125 F 
ENDBRANCH  16  18
ENDBRANCH   2  12
TORSDOF 3
ENDMDL
MODEL 20
REMARK VINA RESULT:    -6.558      4.788     10.365
REMARK INTER + INTRA:          -8.267
REMARK INTER:                  -7.708
REMARK INTRA:                  -0.559
REMARK UNBOUND:                -0.559
REMARK SMILES O=C(Nc1ccc2c(c1)OC(F)(F)O2)Nc1ccc(Cl)c(C(F)(F)F)c1
REMARK SMILES IDX 20 1 16 2 21 3 26 4 17 5 19 6 18 7 22 8 23 9 24 10 25 11
REMARK SMILES IDX 15 12 2 13 1 15 3 16 4 18 9 19 5 20 8 21 6 22 10 23 7 24
REMARK SMILES IDX 11 25 14 26 12 27 13 28
REMARK H PARENT 15 14 3 17
REMARK Flexibility Score: inf
ROOT
ATOM      1  Cl  UNL     1     -17.838  -0.257  -8.541  1.00  0.00    -0.084 Cl
ATOM      2  C   UNL     1     -21.092  -1.255 -11.509  1.00  0.00     0.043 A 
ATOM      3  C   UNL     1     -19.389   0.267 -10.719  1.00  0.00     0.076 A 
ATOM      4  C   UNL     1     -20.395  -0.053 -11.632  1.00  0.00     0.040 A 
ATOM      5  C   UNL     1     -20.781  -2.139 -10.476  1.00  0.00     0.028 A 
ATOM      6  C   UNL     1     -19.079  -0.617  -9.686  1.00  0.00     0.053 A 
ATOM      7  C   UNL     1     -19.775  -1.820  -9.563  1.00  0.00     0.023 A 
ENDROOT
BRANCH   3   8
ATOM      8  C   UNL     1     -18.666   1.564 -10.886  1.00  0.00     0.417 C 
ATOM      9  F   UNL     1     -19.214   2.346 -11.860  1.00  0.00    -0.166 F 
ATOM     10  F   UNL     1     -18.658   2.331  -9.758  1.00  0.00    -0.166 F 
ATOM     11  F   UNL     1     -17.354   1.415 -11.227  1.00  0.00    -0.166 F 
ENDBRANCH   3   8
BRANCH   2  12
ATOM     12  N   UNL     1     -22.113  -1.578 -12.433  1.00  0.00    -0.308 N 
ATOM     13  C   UNL     1     -23.502  -1.449 -12.267  1.00  0.00     0.323 C 
ATOM     14  H   UNL     1     -21.794  -1.949 -13.324  1.00  0.00     0.171 HD
ATOM     15  O   UNL     1     -24.059  -1.021 -11.260  1.00  0.00    -0.248 OA
ATOM     16  N   UNL     1     -24.172  -1.886 -13.435  1.00  0.00    -0.308 N 
ATOM     17  H   UNL     1     -23.576  -2.216 -14.192  1.00  0.00     0.171 HD
BRANCH  16  18
ATOM     18  C   UNL     1     -25.543  -1.926 -13.690  1.00  0.00     0.046 A 
ATOM     19  C   UNL     1     -26.261  -3.096 -13.432  1.00  0.00     0.077 A 
ATOM     20  C   UNL     1     -26.188  -0.788 -14.206  1.00  0.00     0.030 A 
ATOM     21  C   UNL     1     -27.614  -3.089 -13.699  1.00  0.00     0.174 A 
ATOM     22  C   UNL     1     -27.561  -0.807 -14.468  1.00  0.00     0.053 A 
ATOM     23  O   UNL     1     -28.471  -4.131 -13.511  1.00  0.00    -0.395 OA
ATOM     24  C   UNL     1     -28.247  -1.974 -14.204  1.00  0.00     0.172 A 
ATOM     25  C   UNL     1     -29.699  -3.537 -13.956  1.00  0.00     0.586 C 
ATOM     26  O   UNL     1     -29.580  -2.176 -14.395  1.00  0.00    -0.395 OA
ATOM     27  F   UNL     1     -30.597  -3.588 -12.941  1.00  0.00    -0.125 F 
ATOM     28  F   UNL     1     -30.194  -4.280 -14.977  1.00  0.00    -0.125 F 
ENDBRANCH  16  18
ENDBRANCH   2  12
TORSDOF 3
ENDMDL
