REMARK SMILES O=C(Nc1ccc2c(c1)OC(F)(F)O2)Nc1ccc(Cl)c(C(F)(F)F)c1
REMARK SMILES IDX 20 1 16 2 21 3 26 4 17 5 19 6 18 7 22 8 23 9 24 10 25 11
REMARK SMILES IDX 15 12 2 13 1 15 3 16 4 18 9 19 5 20 8 21 6 22 10 23 7 24
REMARK SMILES IDX 11 25 14 26 12 27 13 28
REMARK H PARENT 15 14 3 17
REMARK Flexibility Score: inf
ROOT
ATOM      1  Cl  UNL     1     -14.855  -3.892  -6.930  1.00  0.00    -0.084 Cl
ATOM      2  C   UNL     1     -17.945  -2.049  -9.659  1.00  0.00     0.043 A 
ATOM      3  C   UNL     1     -15.801  -1.917  -8.552  1.00  0.00     0.076 A 
ATOM      4  C   UNL     1     -16.762  -1.359  -9.395  1.00  0.00     0.040 A 
ATOM      5  C   UNL     1     -18.165  -3.300  -9.082  1.00  0.00     0.028 A 
ATOM      6  C   UNL     1     -16.022  -3.167  -7.975  1.00  0.00     0.053 A 
ATOM      7  C   UNL     1     -17.205  -3.859  -8.239  1.00  0.00     0.023 A 
ENDROOT
BRANCH   3   8
ATOM      8  C   UNL     1     -14.547  -1.145  -8.295  1.00  0.00     0.417 C 
ATOM      9  F   UNL     1     -14.531   0.055  -8.943  1.00  0.00    -0.166 F 
ATOM     10  F   UNL     1     -14.348  -0.855  -6.977  1.00  0.00    -0.166 F 
ATOM     11  F   UNL     1     -13.417  -1.796  -8.695  1.00  0.00    -0.166 F 
ENDBRANCH   3   8
BRANCH   2  12
ATOM     12  N   UNL     1     -18.920  -1.482 -10.513  1.00  0.00    -0.308 N 
ATOM     13  C   UNL     1     -20.217  -1.952 -10.776  1.00  0.00     0.323 C 
ATOM     14  H   UNL     1     -18.639  -0.630 -10.990  1.00  0.00     0.171 HD
ATOM     15  O   UNL     1     -20.719  -2.961 -10.289  1.00  0.00    -0.248 OA
ATOM     16  N   UNL     1     -20.868  -1.089 -11.690  1.00  0.00    -0.308 N 
ATOM     17  H   UNL     1     -20.326  -0.290 -12.010  1.00  0.00     0.171 HD
BRANCH  16  18
ATOM     18  C   UNL     1     -22.158  -1.187 -12.214  1.00  0.00     0.046 A 
ATOM     19  C   UNL     1     -22.998  -2.220 -11.793  1.00  0.00     0.077 A 
ATOM     20  C   UNL     1     -22.598  -0.245 -13.161  1.00  0.00     0.030 A 
ATOM     21  C   UNL     1     -24.264  -2.278 -12.339  1.00  0.00     0.174 A 
ATOM     22  C   UNL     1     -23.885  -0.326 -13.698  1.00  0.00     0.053 A 
ATOM     23  O   UNL     1     -25.216  -3.208 -12.051  1.00  0.00    -0.395 OA
ATOM     24  C   UNL     1     -24.696  -1.355 -13.266  1.00  0.00     0.172 A 
ATOM     25  C   UNL     1     -26.280  -2.759 -12.902  1.00  0.00     0.586 C 
ATOM     26  O   UNL     1     -25.973  -1.590 -13.676  1.00  0.00    -0.395 OA
ATOM     27  F   UNL     1     -27.368  -2.497 -12.134  1.00  0.00    -0.125 F 
ATOM     28  F   UNL     1     -26.611  -3.764 -13.749  1.00  0.00    -0.125 F 
ENDBRANCH  16  18
ENDBRANCH   2  12
TORSDOF 3
