MODEL 1
REMARK VINA RESULT:    -7.967      0.000      0.000
REMARK INTER + INTRA:         -11.590
REMARK INTER:                 -10.635
REMARK INTRA:                  -0.955
REMARK UNBOUND:                -0.829
REMARK SMILES CNC(=O)c1cc(Oc2ccc(NC(=O)Nc3ccc(Cl)c(C(F)(F)F)c3)cc2)ccn1
REMARK SMILES IDX 12 1 9 2 11 3 28 4 10 5 29 6 13 7 16 8 14 9 15 11 17 13
REMARK SMILES IDX 21 14 20 15 22 16 19 17 27 18 18 19 23 20 24 21 25 22 26 23
REMARK SMILES IDX 8 24 7 25 6 26 30 27 5 28 31 29 32 30 3 31 4 32 2 33 1 34
REMARK H PARENT 16 10 13 12 2 35
REMARK Flexibility Score: inf
ROOT
ATOM      1  C   UNL     1      83.076  -0.004  11.468  1.00  0.00     0.043 A 
ATOM      2  C   UNL     1      81.236   0.400   9.437  1.00  0.00     0.127 A 
ATOM      3  C   UNL     1      82.659   1.285  11.178  1.00  0.00     0.030 A 
ATOM      4  C   UNL     1      82.595  -1.094  10.762  1.00  0.00     0.030 A 
ATOM      5  C   UNL     1      81.732   1.488  10.156  1.00  0.00     0.049 A 
ATOM      6  C   UNL     1      81.667  -0.890   9.740  1.00  0.00     0.049 A 
ENDROOT
BRANCH   1   7
ATOM      7  N   UNL     1      84.016  -0.210  12.505  1.00  0.00    -0.308 N 
ATOM      8  N   UNL     1      85.979  -0.354  13.712  1.00  0.00    -0.308 N 
ATOM      9  C   UNL     1      85.409  -0.041  12.455  1.00  0.00     0.323 C 
ATOM     10  H   UNL     1      85.327  -0.643  14.437  1.00  0.00     0.171 HD
ATOM     11  O   UNL     1      86.045   0.324  11.471  1.00  0.00    -0.248 OA
ATOM     12  H   UNL     1      83.626  -0.518  13.392  1.00  0.00     0.171 HD
BRANCH   8  13
ATOM     13  C   UNL     1      87.322  -0.319  14.093  1.00  0.00     0.043 A 
ATOM     14  Cl  UNL     1      91.664  -0.249  15.327  1.00  0.00    -0.084 Cl
ATOM     15  C   UNL     1      90.005  -0.251  14.854  1.00  0.00     0.053 A 
ATOM     16  C   UNL     1      89.296   0.938  14.689  1.00  0.00     0.076 A 
ATOM     17  C   UNL     1      89.371  -1.476  14.639  1.00  0.00     0.023 A 
ATOM     18  C   UNL     1      87.954   0.905  14.308  1.00  0.00     0.040 A 
ATOM     19  C   UNL     1      88.030  -1.510  14.258  1.00  0.00     0.028 A 
BRANCH  16  20
ATOM     20  C   UNL     1      89.938   2.270  14.912  1.00  0.00     0.417 C 
ATOM     21  F   UNL     1      90.520   2.395  16.141  1.00  0.00    -0.166 F 
ATOM     22  F   UNL     1      90.928   2.553  14.016  1.00  0.00    -0.166 F 
ATOM     23  F   UNL     1      89.049   3.300  14.818  1.00  0.00    -0.166 F 
ENDBRANCH  16  20
ENDBRANCH   8  13
ENDBRANCH   1   7
BRANCH   2  24
ATOM     24  O   UNL     1      80.334   0.599   8.437  1.00  0.00    -0.457 OA
BRANCH  24  25
ATOM     25  C   UNL     1      79.185   1.311   8.740  1.00  0.00     0.131 A 
ATOM     26  C   UNL     1      78.861   2.419   7.988  1.00  0.00     0.081 A 
ATOM     27  C   UNL     1      78.392   0.894   9.788  1.00  0.00     0.067 A 
ATOM     28  C   UNL     1      77.700   3.096   8.331  1.00  0.00     0.131 A 
ATOM     29  C   UNL     1      77.252   1.638  10.050  1.00  0.00     0.116 A 
ATOM     30  N   UNL     1      76.885   2.733   9.346  1.00  0.00    -0.251 NA
BRANCH  28  31
ATOM     31  C   UNL     1      77.292   4.274   7.585  1.00  0.00     0.269 C 
ATOM     32  O   UNL     1      76.242   4.876   7.879  1.00  0.00    -0.268 OA
ATOM     33  N   UNL     1      78.138   4.700   6.554  1.00  0.00    -0.354 N 
ATOM     34  C   UNL     1      77.882   5.866   5.739  1.00  0.00     0.143 C 
ATOM     35  H   UNL     1      78.998   4.185   6.384  1.00  0.00     0.163 HD
ENDBRANCH  28  31
ENDBRANCH  24  25
ENDBRANCH   2  24
TORSDOF 6
ENDMDL
MODEL 2
REMARK VINA RESULT:    -7.870      2.121      2.552
REMARK INTER + INTRA:         -11.459
REMARK INTER:                 -11.063
REMARK INTRA:                  -0.396
REMARK UNBOUND:                -0.829
REMARK SMILES CNC(=O)c1cc(Oc2ccc(NC(=O)Nc3ccc(Cl)c(C(F)(F)F)c3)cc2)ccn1
REMARK SMILES IDX 12 1 9 2 11 3 28 4 10 5 29 6 13 7 16 8 14 9 15 11 17 13
REMARK SMILES IDX 21 14 20 15 22 16 19 17 27 18 18 19 23 20 24 21 25 22 26 23
REMARK SMILES IDX 8 24 7 25 6 26 30 27 5 28 31 29 32 30 3 31 4 32 2 33 1 34
REMARK H PARENT 16 10 13 12 2 35
REMARK Flexibility Score: inf
ROOT
ATOM      1  C   UNL     1      82.941   1.550  10.912  1.00  0.00     0.043 A 
ATOM      2  C   UNL     1      80.666   0.942   9.454  1.00  0.00     0.127 A 
ATOM      3  C   UNL     1      82.972   1.658   9.531  1.00  0.00     0.030 A 
ATOM      4  C   UNL     1      81.797   1.142  11.579  1.00  0.00     0.030 A 
ATOM      5  C   UNL     1      81.826   1.353   8.797  1.00  0.00     0.049 A 
ATOM      6  C   UNL     1      80.651   0.837  10.844  1.00  0.00     0.049 A 
ENDROOT
BRANCH   1   7
ATOM      7  N   UNL     1      84.103   1.860  11.657  1.00  0.00    -0.308 N 
ATOM      8  N   UNL     1      86.096   1.700  12.812  1.00  0.00    -0.308 N 
ATOM      9  C   UNL     1      85.106   0.982  12.099  1.00  0.00     0.323 C 
ATOM     10  H   UNL     1      85.945   2.701  12.898  1.00  0.00     0.171 HD
ATOM     11  O   UNL     1      85.128  -0.229  11.900  1.00  0.00    -0.248 OA
ATOM     12  H   UNL     1      84.218   2.841  11.896  1.00  0.00     0.171 HD
BRANCH   8  13
ATOM     13  C   UNL     1      87.257   1.215  13.417  1.00  0.00     0.043 A 
ATOM     14  Cl  UNL     1      91.028  -0.315  15.373  1.00  0.00    -0.084 Cl
ATOM     15  C   UNL     1      89.577   0.247  14.626  1.00  0.00     0.053 A 
ATOM     16  C   UNL     1      88.570  -0.637  14.242  1.00  0.00     0.076 A 
ATOM     17  C   UNL     1      89.425   1.616  14.404  1.00  0.00     0.023 A 
ATOM     18  C   UNL     1      87.409  -0.154  13.638  1.00  0.00     0.040 A 
ATOM     19  C   UNL     1      88.265   2.100  13.800  1.00  0.00     0.028 A 
BRANCH  16  20
ATOM     20  C   UNL     1      88.696  -2.112  14.460  1.00  0.00     0.417 C 
ATOM     21  F   UNL     1      87.828  -2.849  13.707  1.00  0.00    -0.166 F 
ATOM     22  F   UNL     1      89.934  -2.601  14.162  1.00  0.00    -0.166 F 
ATOM     23  F   UNL     1      88.458  -2.470  15.754  1.00  0.00    -0.166 F 
ENDBRANCH  16  20
ENDBRANCH   8  13
ENDBRANCH   1   7
BRANCH   2  24
ATOM     24  O   UNL     1      79.548   0.642   8.737  1.00  0.00    -0.457 OA
BRANCH  24  25
ATOM     25  C   UNL     1      78.511   1.559   8.748  1.00  0.00     0.131 A 
ATOM     26  C   UNL     1      78.578   2.663   7.924  1.00  0.00     0.081 A 
ATOM     27  C   UNL     1      77.434   1.347   9.581  1.00  0.00     0.067 A 
ATOM     28  C   UNL     1      77.514   3.550   7.972  1.00  0.00     0.131 A 
ATOM     29  C   UNL     1      76.421   2.293   9.554  1.00  0.00     0.116 A 
ATOM     30  N   UNL     1      76.434   3.393   8.768  1.00  0.00    -0.251 NA
BRANCH  28  31
ATOM     31  C   UNL     1      77.513   4.737   7.133  1.00  0.00     0.269 C 
ATOM     32  O   UNL     1      78.559   5.121   6.579  1.00  0.00    -0.268 OA
ATOM     33  N   UNL     1      76.289   5.397   6.967  1.00  0.00    -0.354 N 
ATOM     34  C   UNL     1      76.121   6.575   6.146  1.00  0.00     0.143 C 
ATOM     35  H   UNL     1      75.463   5.015   7.419  1.00  0.00     0.163 HD
ENDBRANCH  28  31
ENDBRANCH  24  25
ENDBRANCH   2  24
TORSDOF 6
ENDMDL
MODEL 3
REMARK VINA RESULT:    -7.734      6.568     10.923
REMARK INTER + INTRA:         -11.275
REMARK INTER:                 -10.277
REMARK INTRA:                  -0.998
REMARK UNBOUND:                -0.829
REMARK SMILES CNC(=O)c1cc(Oc2ccc(NC(=O)Nc3ccc(Cl)c(C(F)(F)F)c3)cc2)ccn1
REMARK SMILES IDX 12 1 9 2 11 3 28 4 10 5 29 6 13 7 16 8 14 9 15 11 17 13
REMARK SMILES IDX 21 14 20 15 22 16 19 17 27 18 18 19 23 20 24 21 25 22 26 23
REMARK SMILES IDX 8 24 7 25 6 26 30 27 5 28 31 29 32 30 3 31 4 32 2 33 1 34
REMARK H PARENT 16 10 13 12 2 35
REMARK Flexibility Score: inf
ROOT
ATOM      1  C   UNL     1      85.783   2.927  10.493  1.00  0.00     0.043 A 
ATOM      2  C   UNL     1      86.348   0.299  11.160  1.00  0.00     0.127 A 
ATOM      3  C   UNL     1      84.752   2.094  10.896  1.00  0.00     0.030 A 
ATOM      4  C   UNL     1      87.090   2.474  10.416  1.00  0.00     0.030 A 
ATOM      5  C   UNL     1      85.037   0.770  11.232  1.00  0.00     0.049 A 
ATOM      6  C   UNL     1      87.374   1.150  10.753  1.00  0.00     0.049 A 
ENDROOT
BRANCH   1   7
ATOM      7  N   UNL     1      85.495   4.270  10.153  1.00  0.00    -0.308 N 
ATOM      8  N   UNL     1      85.069   6.537  10.267  1.00  0.00    -0.308 N 
ATOM      9  C   UNL     1      85.358   5.370  11.014  1.00  0.00     0.323 C 
ATOM     10  H   UNL     1      85.004   6.415   9.260  1.00  0.00     0.171 HD
ATOM     11  O   UNL     1      85.472   5.333  12.236  1.00  0.00    -0.248 OA
ATOM     12  H   UNL     1      85.374   4.451   9.160  1.00  0.00     0.171 HD
BRANCH   8  13
ATOM     13  C   UNL     1      84.858   7.837  10.728  1.00  0.00     0.043 A 
ATOM     14  Cl  UNL     1      84.214  12.054  12.206  1.00  0.00    -0.084 Cl
ATOM     15  C   UNL     1      84.439  10.436  11.651  1.00  0.00     0.053 A 
ATOM     16  C   UNL     1      83.521   9.432  11.954  1.00  0.00     0.076 A 
ATOM     17  C   UNL     1      85.568  10.141  10.886  1.00  0.00     0.023 A 
ATOM     18  C   UNL     1      83.730   8.131  11.493  1.00  0.00     0.040 A 
ATOM     19  C   UNL     1      85.777   8.841  10.425  1.00  0.00     0.028 A 
BRANCH  16  20
ATOM     20  C   UNL     1      82.299   9.707  12.773  1.00  0.00     0.417 C 
ATOM     21  F   UNL     1      81.434  10.582  12.182  1.00  0.00    -0.166 F 
ATOM     22  F   UNL     1      81.559   8.592  13.034  1.00  0.00    -0.166 F 
ATOM     23  F   UNL     1      82.597  10.247  13.989  1.00  0.00    -0.166 F 
ENDBRANCH  16  20
ENDBRANCH   8  13
ENDBRANCH   1   7
BRANCH   2  24
ATOM     24  O   UNL     1      86.625  -0.994  11.486  1.00  0.00    -0.457 OA
BRANCH  24  25
ATOM     25  C   UNL     1      87.334  -1.225  12.653  1.00  0.00     0.131 A 
ATOM     26  C   UNL     1      88.599  -1.765  12.577  1.00  0.00     0.081 A 
ATOM     27  C   UNL     1      86.757  -0.908  13.865  1.00  0.00     0.067 A 
ATOM     28  C   UNL     1      89.267  -1.975  13.774  1.00  0.00     0.131 A 
ATOM     29  C   UNL     1      87.507  -1.157  15.003  1.00  0.00     0.116 A 
ATOM     30  N   UNL     1      88.752  -1.685  14.989  1.00  0.00    -0.251 NA
BRANCH  28  31
ATOM     31  C   UNL     1      90.605  -2.541  13.776  1.00  0.00     0.269 C 
ATOM     32  O   UNL     1      90.777  -3.760  13.585  1.00  0.00    -0.268 OA
ATOM     33  N   UNL     1      91.671  -1.656  13.975  1.00  0.00    -0.354 N 
ATOM     34  C   UNL     1      93.059  -2.061  13.979  1.00  0.00     0.143 C 
ATOM     35  H   UNL     1      91.469  -0.666  14.092  1.00  0.00     0.163 HD
ENDBRANCH  28  31
ENDBRANCH  24  25
ENDBRANCH   2  24
TORSDOF 6
ENDMDL
MODEL 4
REMARK VINA RESULT:    -7.669      1.318      1.735
REMARK INTER + INTRA:         -11.189
REMARK INTER:                 -10.167
REMARK INTRA:                  -1.022
REMARK UNBOUND:                -0.829
REMARK SMILES CNC(=O)c1cc(Oc2ccc(NC(=O)Nc3ccc(Cl)c(C(F)(F)F)c3)cc2)ccn1
REMARK SMILES IDX 12 1 9 2 11 3 28 4 10 5 29 6 13 7 16 8 14 9 15 11 17 13
REMARK SMILES IDX 21 14 20 15 22 16 19 17 27 18 18 19 23 20 24 21 25 22 26 23
REMARK SMILES IDX 8 24 7 25 6 26 30 27 5 28 31 29 32 30 3 31 4 32 2 33 1 34
REMARK H PARENT 16 10 13 12 2 35
REMARK Flexibility Score: inf
ROOT
ATOM      1  C   UNL     1      82.951  -0.099  11.422  1.00  0.00     0.043 A 
ATOM      2  C   UNL     1      81.106   0.175   9.374  1.00  0.00     0.127 A 
ATOM      3  C   UNL     1      82.221   1.074  11.320  1.00  0.00     0.030 A 
ATOM      4  C   UNL     1      82.779  -1.137  10.521  1.00  0.00     0.030 A 
ATOM      5  C   UNL     1      81.291   1.211  10.289  1.00  0.00     0.049 A 
ATOM      6  C   UNL     1      81.850  -0.998   9.490  1.00  0.00     0.049 A 
ENDROOT
BRANCH   1   7
ATOM      7  N   UNL     1      83.893  -0.239  12.468  1.00  0.00    -0.308 N 
ATOM      8  N   UNL     1      85.859  -0.297  13.679  1.00  0.00    -0.308 N 
ATOM      9  C   UNL     1      85.285  -0.060  12.407  1.00  0.00     0.323 C 
ATOM     10  H   UNL     1      85.210  -0.551  14.419  1.00  0.00     0.171 HD
ATOM     11  O   UNL     1      85.916   0.255  11.403  1.00  0.00    -0.248 OA
ATOM     12  H   UNL     1      83.507  -0.500  13.371  1.00  0.00     0.171 HD
BRANCH   8  13
ATOM     13  C   UNL     1      87.201  -0.230  14.056  1.00  0.00     0.043 A 
ATOM     14  Cl  UNL     1      91.544  -0.053  15.276  1.00  0.00    -0.084 Cl
ATOM     15  C   UNL     1      89.884  -0.096  14.808  1.00  0.00     0.053 A 
ATOM     16  C   UNL     1      89.151   1.076  14.630  1.00  0.00     0.076 A 
ATOM     17  C   UNL     1      89.276  -1.336  14.612  1.00  0.00     0.023 A 
ATOM     18  C   UNL     1      87.809   1.010  14.253  1.00  0.00     0.040 A 
ATOM     19  C   UNL     1      87.934  -1.403  14.235  1.00  0.00     0.028 A 
BRANCH  16  20
ATOM     20  C   UNL     1      89.765   2.424  14.833  1.00  0.00     0.417 C 
ATOM     21  F   UNL     1      90.294   2.599  16.079  1.00  0.00    -0.166 F 
ATOM     22  F   UNL     1      90.787   2.691  13.969  1.00  0.00    -0.166 F 
ATOM     23  F   UNL     1      88.867   3.437  14.668  1.00  0.00    -0.166 F 
ENDBRANCH  16  20
ENDBRANCH   8  13
ENDBRANCH   1   7
BRANCH   2  24
ATOM     24  O   UNL     1      80.201   0.311   8.367  1.00  0.00    -0.457 OA
BRANCH  24  25
ATOM     25  C   UNL     1      80.298   1.432   7.561  1.00  0.00     0.131 A 
ATOM     26  C   UNL     1      79.331   2.411   7.647  1.00  0.00     0.081 A 
ATOM     27  C   UNL     1      81.361   1.545   6.691  1.00  0.00     0.067 A 
ATOM     28  C   UNL     1      79.475   3.514   6.820  1.00  0.00     0.131 A 
ATOM     29  C   UNL     1      81.415   2.687   5.907  1.00  0.00     0.116 A 
ATOM     30  N   UNL     1      80.495   3.678   5.949  1.00  0.00    -0.251 NA
BRANCH  28  31
ATOM     31  C   UNL     1      78.496   4.587   6.853  1.00  0.00     0.269 C 
ATOM     32  O   UNL     1      77.697   4.685   7.803  1.00  0.00    -0.268 OA
ATOM     33  N   UNL     1      78.517   5.501   5.793  1.00  0.00    -0.354 N 
ATOM     34  C   UNL     1      77.624   6.633   5.695  1.00  0.00     0.143 C 
ATOM     35  H   UNL     1      79.215   5.386   5.063  1.00  0.00     0.163 HD
ENDBRANCH  28  31
ENDBRANCH  24  25
ENDBRANCH   2  24
TORSDOF 6
ENDMDL
MODEL 5
REMARK VINA RESULT:    -7.605      2.087      2.498
REMARK INTER + INTRA:         -11.102
REMARK INTER:                 -10.048
REMARK INTRA:                  -1.054
REMARK UNBOUND:                -0.829
REMARK SMILES CNC(=O)c1cc(Oc2ccc(NC(=O)Nc3ccc(Cl)c(C(F)(F)F)c3)cc2)ccn1
REMARK SMILES IDX 12 1 9 2 11 3 28 4 10 5 29 6 13 7 16 8 14 9 15 11 17 13
REMARK SMILES IDX 21 14 20 15 22 16 19 17 27 18 18 19 23 20 24 21 25 22 26 23
REMARK SMILES IDX 8 24 7 25 6 26 30 27 5 28 31 29 32 30 3 31 4 32 2 33 1 34
REMARK H PARENT 16 10 13 12 2 35
REMARK Flexibility Score: inf
ROOT
ATOM      1  C   UNL     1      83.539   0.630  10.788  1.00  0.00     0.043 A 
ATOM      2  C   UNL     1      80.862   0.176  10.237  1.00  0.00     0.127 A 
ATOM      3  C   UNL     1      82.573   1.317  11.506  1.00  0.00     0.030 A 
ATOM      4  C   UNL     1      83.195  -0.277   9.800  1.00  0.00     0.030 A 
ATOM      5  C   UNL     1      81.225   1.087  11.229  1.00  0.00     0.049 A 
ATOM      6  C   UNL     1      81.846  -0.506   9.523  1.00  0.00     0.049 A 
ENDROOT
BRANCH   1   7
ATOM      7  N   UNL     1      84.905   0.863  11.069  1.00  0.00    -0.308 N 
ATOM      8  N   UNL     1      86.993   0.844  12.056  1.00  0.00    -0.308 N 
ATOM      9  C   UNL     1      85.661   0.374  12.147  1.00  0.00     0.323 C 
ATOM     10  H   UNL     1      87.201   1.441  11.260  1.00  0.00     0.171 HD
ATOM     11  O   UNL     1      85.236  -0.353  13.040  1.00  0.00    -0.248 OA
ATOM     12  H   UNL     1      85.393   1.457  10.404  1.00  0.00     0.171 HD
BRANCH   8  13
ATOM     13  C   UNL     1      88.064   0.599  12.917  1.00  0.00     0.043 A 
ATOM     14  Cl  UNL     1      91.521  -0.160  15.721  1.00  0.00    -0.084 Cl
ATOM     15  C   UNL     1      90.205   0.109  14.637  1.00  0.00     0.053 A 
ATOM     16  C   UNL     1      89.972  -0.739  13.555  1.00  0.00     0.076 A 
ATOM     17  C   UNL     1      89.368   1.203  14.859  1.00  0.00     0.023 A 
ATOM     18  C   UNL     1      88.902  -0.494  12.694  1.00  0.00     0.040 A 
ATOM     19  C   UNL     1      88.297   1.447  13.999  1.00  0.00     0.028 A 
BRANCH  16  20
ATOM     20  C   UNL     1      90.848  -1.920  13.281  1.00  0.00     0.417 C 
ATOM     21  F   UNL     1      92.171  -1.603  13.174  1.00  0.00    -0.166 F 
ATOM     22  F   UNL     1      90.786  -2.878  14.251  1.00  0.00    -0.166 F 
ATOM     23  F   UNL     1      90.524  -2.551  12.117  1.00  0.00    -0.166 F 
ENDBRANCH  16  20
ENDBRANCH   8  13
ENDBRANCH   1   7
BRANCH   2  24
ATOM     24  O   UNL     1      79.547  -0.046   9.965  1.00  0.00    -0.457 OA
BRANCH  24  25
ATOM     25  C   UNL     1      78.778   1.039   9.578  1.00  0.00     0.131 A 
ATOM     26  C   UNL     1      79.187   1.809   8.511  1.00  0.00     0.081 A 
ATOM     27  C   UNL     1      77.620   1.323  10.269  1.00  0.00     0.067 A 
ATOM     28  C   UNL     1      78.382   2.882   8.163  1.00  0.00     0.131 A 
ATOM     29  C   UNL     1      76.884   2.417   9.842  1.00  0.00     0.116 A 
ATOM     30  N   UNL     1      77.238   3.208   8.803  1.00  0.00    -0.251 NA
BRANCH  28  31
ATOM     31  C   UNL     1      78.747   3.740   7.049  1.00  0.00     0.269 C 
ATOM     32  O   UNL     1      78.380   4.930   7.020  1.00  0.00    -0.268 OA
ATOM     33  N   UNL     1      79.539   3.175   6.042  1.00  0.00    -0.354 N 
ATOM     34  C   UNL     1      80.002   3.905   4.884  1.00  0.00     0.143 C 
ATOM     35  H   UNL     1      79.834   2.207   6.138  1.00  0.00     0.163 HD
ENDBRANCH  28  31
ENDBRANCH  24  25
ENDBRANCH   2  24
TORSDOF 6
ENDMDL
MODEL 6
REMARK VINA RESULT:    -7.593      2.491      3.146
REMARK INTER + INTRA:         -11.085
REMARK INTER:                 -10.562
REMARK INTRA:                  -0.524
REMARK UNBOUND:                -0.829
REMARK SMILES CNC(=O)c1cc(Oc2ccc(NC(=O)Nc3ccc(Cl)c(C(F)(F)F)c3)cc2)ccn1
REMARK SMILES IDX 12 1 9 2 11 3 28 4 10 5 29 6 13 7 16 8 14 9 15 11 17 13
REMARK SMILES IDX 21 14 20 15 22 16 19 17 27 18 18 19 23 20 24 21 25 22 26 23
REMARK SMILES IDX 8 24 7 25 6 26 30 27 5 28 31 29 32 30 3 31 4 32 2 33 1 34
REMARK H PARENT 16 10 13 12 2 35
REMARK Flexibility Score: inf
ROOT
ATOM      1  C   UNL     1      82.983   1.639  10.896  1.00  0.00     0.043 A 
ATOM      2  C   UNL     1      80.954   1.342   9.033  1.00  0.00     0.127 A 
ATOM      3  C   UNL     1      81.755   1.142  11.304  1.00  0.00     0.030 A 
ATOM      4  C   UNL     1      83.216   1.991   9.577  1.00  0.00     0.030 A 
ATOM      5  C   UNL     1      80.734   0.992  10.366  1.00  0.00     0.049 A 
ATOM      6  C   UNL     1      82.194   1.841   8.639  1.00  0.00     0.049 A 
ENDROOT
BRANCH   1   7
ATOM      7  N   UNL     1      84.018   1.791  11.847  1.00  0.00    -0.308 N 
ATOM      8  N   UNL     1      85.933   1.476  13.100  1.00  0.00    -0.308 N 
ATOM      9  C   UNL     1      85.140   0.969  12.043  1.00  0.00     0.323 C 
ATOM     10  H   UNL     1      85.591   2.323  13.546  1.00  0.00     0.171 HD
ATOM     11  O   UNL     1      85.401  -0.041  11.396  1.00  0.00    -0.248 OA
ATOM     12  H   UNL     1      83.933   2.597  12.460  1.00  0.00     0.171 HD
BRANCH   8  13
ATOM     13  C   UNL     1      87.125   0.966  13.616  1.00  0.00     0.043 A 
ATOM     14  Cl  UNL     1      90.997  -0.644  15.289  1.00  0.00    -0.084 Cl
ATOM     15  C   UNL     1      89.509  -0.052  14.648  1.00  0.00     0.053 A 
ATOM     16  C   UNL     1      88.515  -0.921  14.200  1.00  0.00     0.076 A 
ATOM     17  C   UNL     1      89.312   1.327  14.579  1.00  0.00     0.023 A 
ATOM     18  C   UNL     1      87.323  -0.413  13.684  1.00  0.00     0.040 A 
ATOM     19  C   UNL     1      88.119   1.837  14.063  1.00  0.00     0.028 A 
BRANCH  16  20
ATOM     20  C   UNL     1      88.689  -2.406  14.255  1.00  0.00     0.417 C 
ATOM     21  F   UNL     1      87.820  -3.086  13.451  1.00  0.00    -0.166 F 
ATOM     22  F   UNL     1      89.931  -2.821  13.874  1.00  0.00    -0.166 F 
ATOM     23  F   UNL     1      88.501  -2.907  15.509  1.00  0.00    -0.166 F 
ENDBRANCH  16  20
ENDBRANCH   8  13
ENDBRANCH   1   7
BRANCH   2  24
ATOM     24  O   UNL     1      79.956   1.197   8.118  1.00  0.00    -0.457 OA
BRANCH  24  25
ATOM     25  C   UNL     1      79.372   2.348   7.616  1.00  0.00     0.131 A 
ATOM     26  C   UNL     1      79.797   2.845   6.403  1.00  0.00     0.081 A 
ATOM     27  C   UNL     1      78.378   2.969   8.341  1.00  0.00     0.067 A 
ATOM     28  C   UNL     1      79.180   3.998   5.944  1.00  0.00     0.131 A 
ATOM     29  C   UNL     1      77.824   4.116   7.795  1.00  0.00     0.116 A 
ATOM     30  N   UNL     1      78.202   4.649   6.611  1.00  0.00    -0.251 NA
BRANCH  28  31
ATOM     31  C   UNL     1      79.574   4.583   4.674  1.00  0.00     0.269 C 
ATOM     32  O   UNL     1      78.723   4.825   3.797  1.00  0.00    -0.268 OA
ATOM     33  N   UNL     1      80.931   4.878   4.502  1.00  0.00    -0.354 N 
ATOM     34  C   UNL     1      81.474   5.483   3.306  1.00  0.00     0.143 C 
ATOM     35  H   UNL     1      81.573   4.688   5.267  1.00  0.00     0.163 HD
ENDBRANCH  28  31
ENDBRANCH  24  25
ENDBRANCH   2  24
TORSDOF 6
ENDMDL
MODEL 7
REMARK VINA RESULT:    -7.493      7.158     10.217
REMARK INTER + INTRA:         -10.950
REMARK INTER:                 -10.128
REMARK INTRA:                  -0.822
REMARK UNBOUND:                -0.829
REMARK SMILES CNC(=O)c1cc(Oc2ccc(NC(=O)Nc3ccc(Cl)c(C(F)(F)F)c3)cc2)ccn1
REMARK SMILES IDX 12 1 9 2 11 3 28 4 10 5 29 6 13 7 16 8 14 9 15 11 17 13
REMARK SMILES IDX 21 14 20 15 22 16 19 17 27 18 18 19 23 20 24 21 25 22 26 23
REMARK SMILES IDX 8 24 7 25 6 26 30 27 5 28 31 29 32 30 3 31 4 32 2 33 1 34
REMARK H PARENT 16 10 13 12 2 35
REMARK Flexibility Score: inf
ROOT
ATOM      1  C   UNL     1      82.319   1.310  10.040  1.00  0.00     0.043 A 
ATOM      2  C   UNL     1      84.721   2.679  10.219  1.00  0.00     0.127 A 
ATOM      3  C   UNL     1      82.827   1.937   8.914  1.00  0.00     0.030 A 
ATOM      4  C   UNL     1      82.986   1.354  11.254  1.00  0.00     0.030 A 
ATOM      5  C   UNL     1      84.037   2.626   9.004  1.00  0.00     0.049 A 
ATOM      6  C   UNL     1      84.196   2.043  11.343  1.00  0.00     0.049 A 
ENDROOT
BRANCH   1   7
ATOM      7  N   UNL     1      81.093   0.611   9.949  1.00  0.00    -0.308 N 
ATOM      8  N   UNL     1      79.462  -0.930   9.400  1.00  0.00    -0.308 N 
ATOM      9  C   UNL     1      80.815  -0.557   9.220  1.00  0.00     0.323 C 
ATOM     10  H   UNL     1      78.911  -0.325  10.004  1.00  0.00     0.171 HD
ATOM     11  O   UNL     1      81.622  -1.168   8.526  1.00  0.00    -0.248 OA
ATOM     12  H   UNL     1      80.324   1.008  10.481  1.00  0.00     0.171 HD
BRANCH   8  13
ATOM     13  C   UNL     1      78.779  -2.019   8.857  1.00  0.00     0.043 A 
ATOM     14  Cl  UNL     1      76.538  -5.516   7.087  1.00  0.00    -0.084 Cl
ATOM     15  C   UNL     1      77.412  -4.195   7.772  1.00  0.00     0.053 A 
ATOM     16  C   UNL     1      78.555  -4.403   8.542  1.00  0.00     0.076 A 
ATOM     17  C   UNL     1      76.951  -2.898   7.544  1.00  0.00     0.023 A 
ATOM     18  C   UNL     1      79.239  -3.315   9.085  1.00  0.00     0.040 A 
ATOM     19  C   UNL     1      77.635  -1.809   8.086  1.00  0.00     0.028 A 
BRANCH  16  20
ATOM     20  C   UNL     1      79.079  -5.778   8.812  1.00  0.00     0.417 C 
ATOM     21  F   UNL     1      80.340  -5.786   9.336  1.00  0.00    -0.166 F 
ATOM     22  F   UNL     1      78.318  -6.486   9.695  1.00  0.00    -0.166 F 
ATOM     23  F   UNL     1      79.144  -6.541   7.684  1.00  0.00    -0.166 F 
ENDBRANCH  16  20
ENDBRANCH   8  13
ENDBRANCH   1   7
BRANCH   2  24
ATOM     24  O   UNL     1      85.900   3.353  10.307  1.00  0.00    -0.457 OA
BRANCH  24  25
ATOM     25  C   UNL     1      85.953   4.448  11.153  1.00  0.00     0.131 A 
ATOM     26  C   UNL     1      85.176   5.552  10.877  1.00  0.00     0.081 A 
ATOM     27  C   UNL     1      86.783   4.408  12.254  1.00  0.00     0.067 A 
ATOM     28  C   UNL     1      85.265   6.621  11.755  1.00  0.00     0.131 A 
ATOM     29  C   UNL     1      86.799   5.528  13.070  1.00  0.00     0.116 A 
ATOM     30  N   UNL     1      86.059   6.638  12.848  1.00  0.00    -0.251 NA
BRANCH  28  31
ATOM     31  C   UNL     1      84.476   7.820  11.531  1.00  0.00     0.269 C 
ATOM     32  O   UNL     1      84.391   8.318  10.393  1.00  0.00    -0.268 OA
ATOM     33  N   UNL     1      83.810   8.361  12.638  1.00  0.00    -0.354 N 
ATOM     34  C   UNL     1      82.969   9.535  12.571  1.00  0.00     0.143 C 
ATOM     35  H   UNL     1      83.892   7.890  13.535  1.00  0.00     0.163 HD
ENDBRANCH  28  31
ENDBRANCH  24  25
ENDBRANCH   2  24
TORSDOF 6
ENDMDL
MODEL 8
REMARK VINA RESULT:    -7.475      2.306      3.042
REMARK INTER + INTRA:         -10.926
REMARK INTER:                  -9.990
REMARK INTRA:                  -0.935
REMARK UNBOUND:                -0.829
REMARK SMILES CNC(=O)c1cc(Oc2ccc(NC(=O)Nc3ccc(Cl)c(C(F)(F)F)c3)cc2)ccn1
REMARK SMILES IDX 12 1 9 2 11 3 28 4 10 5 29 6 13 7 16 8 14 9 15 11 17 13
REMARK SMILES IDX 21 14 20 15 22 16 19 17 27 18 18 19 23 20 24 21 25 22 26 23
REMARK SMILES IDX 8 24 7 25 6 26 30 27 5 28 31 29 32 30 3 31 4 32 2 33 1 34
REMARK H PARENT 16 10 13 12 2 35
REMARK Flexibility Score: inf
ROOT
ATOM      1  C   UNL     1      82.835  -0.096  11.376  1.00  0.00     0.043 A 
ATOM      2  C   UNL     1      80.906   0.199   9.409  1.00  0.00     0.127 A 
ATOM      3  C   UNL     1      82.597  -1.140  10.497  1.00  0.00     0.030 A 
ATOM      4  C   UNL     1      82.127   1.093  11.293  1.00  0.00     0.030 A 
ATOM      5  C   UNL     1      81.627  -0.991   9.507  1.00  0.00     0.049 A 
ATOM      6  C   UNL     1      81.156   1.241  10.302  1.00  0.00     0.049 A 
ENDROOT
BRANCH   1   7
ATOM      7  N   UNL     1      83.819  -0.246  12.380  1.00  0.00    -0.308 N 
ATOM      8  N   UNL     1      85.838  -0.436  13.486  1.00  0.00    -0.308 N 
ATOM      9  C   UNL     1      85.215  -0.264  12.226  1.00  0.00     0.323 C 
ATOM     10  H   UNL     1      85.214  -0.519  14.283  1.00  0.00     0.171 HD
ATOM     11  O   UNL     1      85.813  -0.148  11.161  1.00  0.00    -0.248 OA
ATOM     12  H   UNL     1      83.464  -0.354  13.326  1.00  0.00     0.171 HD
BRANCH   8  13
ATOM     13  C   UNL     1      87.200  -0.509  13.781  1.00  0.00     0.043 A 
ATOM     14  Cl  UNL     1      91.605  -0.709  14.755  1.00  0.00    -0.084 Cl
ATOM     15  C   UNL     1      89.923  -0.654  14.370  1.00  0.00     0.053 A 
ATOM     16  C   UNL     1      89.335  -1.616  13.550  1.00  0.00     0.076 A 
ATOM     17  C   UNL     1      89.150   0.381  14.896  1.00  0.00     0.023 A 
ATOM     18  C   UNL     1      87.973  -1.544  13.255  1.00  0.00     0.040 A 
ATOM     19  C   UNL     1      87.788   0.454  14.601  1.00  0.00     0.028 A 
BRANCH  16  20
ATOM     20  C   UNL     1      90.130  -2.739  12.965  1.00  0.00     0.417 C 
ATOM     21  F   UNL     1      91.158  -2.323  12.170  1.00  0.00    -0.166 F 
ATOM     22  F   UNL     1      90.707  -3.543  13.905  1.00  0.00    -0.166 F 
ATOM     23  F   UNL     1      89.373  -3.564  12.187  1.00  0.00    -0.166 F 
ENDBRANCH  16  20
ENDBRANCH   8  13
ENDBRANCH   1   7
BRANCH   2  24
ATOM     24  O   UNL     1      79.957   0.343   8.444  1.00  0.00    -0.457 OA
BRANCH  24  25
ATOM     25  C   UNL     1      80.070   1.425   7.587  1.00  0.00     0.131 A 
ATOM     26  C   UNL     1      79.162   2.458   7.681  1.00  0.00     0.081 A 
ATOM     27  C   UNL     1      81.090   1.445   6.660  1.00  0.00     0.067 A 
ATOM     28  C   UNL     1      79.320   3.517   6.801  1.00  0.00     0.131 A 
ATOM     29  C   UNL     1      81.162   2.550   5.826  1.00  0.00     0.116 A 
ATOM     30  N   UNL     1      80.299   3.590   5.873  1.00  0.00    -0.251 NA
BRANCH  28  31
ATOM     31  C   UNL     1      78.402   4.643   6.839  1.00  0.00     0.269 C 
ATOM     32  O   UNL     1      77.610   4.782   7.789  1.00  0.00    -0.268 OA
ATOM     33  N   UNL     1      78.473   5.558   5.781  1.00  0.00    -0.354 N 
ATOM     34  C   UNL     1      77.645   6.739   5.687  1.00  0.00     0.143 C 
ATOM     35  H   UNL     1      79.164   5.407   5.051  1.00  0.00     0.163 HD
ENDBRANCH  28  31
ENDBRANCH  24  25
ENDBRANCH   2  24
TORSDOF 6
ENDMDL
MODEL 9
REMARK VINA RESULT:    -7.459      6.790     10.587
REMARK INTER + INTRA:         -10.904
REMARK INTER:                 -10.014
REMARK INTRA:                  -0.890
REMARK UNBOUND:                -0.829
REMARK SMILES CNC(=O)c1cc(Oc2ccc(NC(=O)Nc3ccc(Cl)c(C(F)(F)F)c3)cc2)ccn1
REMARK SMILES IDX 12 1 9 2 11 3 28 4 10 5 29 6 13 7 16 8 14 9 15 11 17 13
REMARK SMILES IDX 21 14 20 15 22 16 19 17 27 18 18 19 23 20 24 21 25 22 26 23
REMARK SMILES IDX 8 24 7 25 6 26 30 27 5 28 31 29 32 30 3 31 4 32 2 33 1 34
REMARK H PARENT 16 10 13 12 2 35
REMARK Flexibility Score: inf
ROOT
ATOM      1  C   UNL     1      85.839   2.832  11.926  1.00  0.00     0.043 A 
ATOM      2  C   UNL     1      86.185   0.442  13.283  1.00  0.00     0.127 A 
ATOM      3  C   UNL     1      84.895   1.828  11.782  1.00  0.00     0.030 A 
ATOM      4  C   UNL     1      86.953   2.665  12.732  1.00  0.00     0.030 A 
ATOM      5  C   UNL     1      85.069   0.625  12.467  1.00  0.00     0.049 A 
ATOM      6  C   UNL     1      87.127   1.462  13.416  1.00  0.00     0.049 A 
ENDROOT
BRANCH   1   7
ATOM      7  N   UNL     1      85.663   4.053  11.233  1.00  0.00    -0.308 N 
ATOM      8  N   UNL     1      85.282   6.275  10.731  1.00  0.00    -0.308 N 
ATOM      9  C   UNL     1      85.381   5.319  11.770  1.00  0.00     0.323 C 
ATOM     10  H   UNL     1      85.423   5.922   9.788  1.00  0.00     0.171 HD
ATOM     11  O   UNL     1      85.240   5.568  12.964  1.00  0.00    -0.248 OA
ATOM     12  H   UNL     1      85.753   3.997  10.222  1.00  0.00     0.171 HD
BRANCH   8  13
ATOM     13  C   UNL     1      85.016   7.641  10.826  1.00  0.00     0.043 A 
ATOM     14  Cl  UNL     1      84.191  12.071  11.119  1.00  0.00    -0.084 Cl
ATOM     15  C   UNL     1      84.484  10.373  11.018  1.00  0.00     0.053 A 
ATOM     16  C   UNL     1      83.596   9.450  11.567  1.00  0.00     0.076 A 
ATOM     17  C   UNL     1      85.639   9.931  10.372  1.00  0.00     0.023 A 
ATOM     18  C   UNL     1      83.861   8.083  11.472  1.00  0.00     0.040 A 
ATOM     19  C   UNL     1      85.905   8.564  10.276  1.00  0.00     0.028 A 
BRANCH  16  20
ATOM     20  C   UNL     1      82.348   9.884  12.268  1.00  0.00     0.417 C 
ATOM     21  F   UNL     1      82.581  10.692  13.343  1.00  0.00    -0.166 F 
ATOM     22  F   UNL     1      81.493  10.585  11.471  1.00  0.00    -0.166 F 
ATOM     23  F   UNL     1      81.627   8.831  12.748  1.00  0.00    -0.166 F 
ENDBRANCH  16  20
ENDBRANCH   8  13
ENDBRANCH   1   7
BRANCH   2  24
ATOM     24  O   UNL     1      86.356  -0.733  13.948  1.00  0.00    -0.457 OA
BRANCH  24  25
ATOM     25  C   UNL     1      87.388  -1.561  13.538  1.00  0.00     0.131 A 
ATOM     26  C   UNL     1      87.406  -2.021  12.239  1.00  0.00     0.081 A 
ATOM     27  C   UNL     1      88.373  -1.904  14.438  1.00  0.00     0.067 A 
ATOM     28  C   UNL     1      88.461  -2.845  11.878  1.00  0.00     0.131 A 
ATOM     29  C   UNL     1      89.384  -2.733  13.979  1.00  0.00     0.116 A 
ATOM     30  N   UNL     1      89.453  -3.215  12.717  1.00  0.00    -0.251 NA
BRANCH  28  31
ATOM     31  C   UNL     1      88.550  -3.371  10.526  1.00  0.00     0.269 C 
ATOM     32  O   UNL     1      88.397  -2.621   9.544  1.00  0.00    -0.268 OA
ATOM     33  N   UNL     1      88.835  -4.735  10.391  1.00  0.00    -0.354 N 
ATOM     34  C   UNL     1      88.979  -5.400   9.116  1.00  0.00     0.143 C 
ATOM     35  H   UNL     1      88.982  -5.289  11.230  1.00  0.00     0.163 HD
ENDBRANCH  28  31
ENDBRANCH  24  25
ENDBRANCH   2  24
TORSDOF 6
ENDMDL
MODEL 10
REMARK VINA RESULT:    -7.396      1.563      2.279
REMARK INTER + INTRA:         -10.819
REMARK INTER:                  -9.980
REMARK INTRA:                  -0.839
REMARK UNBOUND:                -0.829
REMARK SMILES CNC(=O)c1cc(Oc2ccc(NC(=O)Nc3ccc(Cl)c(C(F)(F)F)c3)cc2)ccn1
REMARK SMILES IDX 12 1 9 2 11 3 28 4 10 5 29 6 13 7 16 8 14 9 15 11 17 13
REMARK SMILES IDX 21 14 20 15 22 16 19 17 27 18 18 19 23 20 24 21 25 22 26 23
REMARK SMILES IDX 8 24 7 25 6 26 30 27 5 28 31 29 32 30 3 31 4 32 2 33 1 34
REMARK H PARENT 16 10 13 12 2 35
REMARK Flexibility Score: inf
ROOT
ATOM      1  C   UNL     1      82.890  -0.141  11.562  1.00  0.00     0.043 A 
ATOM      2  C   UNL     1      80.983   0.008   9.559  1.00  0.00     0.127 A 
ATOM      3  C   UNL     1      82.781  -1.180  10.651  1.00  0.00     0.030 A 
ATOM      4  C   UNL     1      82.065   0.969  11.493  1.00  0.00     0.030 A 
ATOM      5  C   UNL     1      81.821  -1.104   9.642  1.00  0.00     0.049 A 
ATOM      6  C   UNL     1      81.105   1.044  10.484  1.00  0.00     0.049 A 
ENDROOT
BRANCH   1   7
ATOM      7  N   UNL     1      83.864  -0.217  12.585  1.00  0.00    -0.308 N 
ATOM      8  N   UNL     1      85.871  -0.264  13.728  1.00  0.00    -0.308 N 
ATOM      9  C   UNL     1      85.261  -0.145  12.456  1.00  0.00     0.323 C 
ATOM     10  H   UNL     1      85.238  -0.380  14.515  1.00  0.00     0.171 HD
ATOM     11  O   UNL     1      85.869   0.001  11.400  1.00  0.00    -0.248 OA
ATOM     12  H   UNL     1      83.500  -0.339  13.526  1.00  0.00     0.171 HD
BRANCH   8  13
ATOM     13  C   UNL     1      87.229  -0.244  14.048  1.00  0.00     0.043 A 
ATOM     14  Cl  UNL     1      91.624  -0.223  15.084  1.00  0.00    -0.084 Cl
ATOM     15  C   UNL     1      89.944  -0.206  14.688  1.00  0.00     0.053 A 
ATOM     16  C   UNL     1      89.231   0.989  14.601  1.00  0.00     0.076 A 
ATOM     17  C   UNL     1      89.299  -1.421  14.455  1.00  0.00     0.023 A 
ATOM     18  C   UNL     1      87.873   0.970  14.281  1.00  0.00     0.040 A 
ATOM     19  C   UNL     1      87.942  -1.441  14.135  1.00  0.00     0.028 A 
BRANCH  16  20
ATOM     20  C   UNL     1      89.885   2.311  14.845  1.00  0.00     0.417 C 
ATOM     21  F   UNL     1      89.026   3.368  14.756  1.00  0.00    -0.166 F 
ATOM     22  F   UNL     1      90.456   2.415  16.080  1.00  0.00    -0.166 F 
ATOM     23  F   UNL     1      90.883   2.572  13.953  1.00  0.00    -0.166 F 
ENDBRANCH  16  20
ENDBRANCH   8  13
ENDBRANCH   1   7
BRANCH   2  24
ATOM     24  O   UNL     1      80.044   0.081   8.576  1.00  0.00    -0.457 OA
BRANCH  24  25
ATOM     25  C   UNL     1      79.759   1.329   8.049  1.00  0.00     0.131 A 
ATOM     26  C   UNL     1      80.660   1.919   7.188  1.00  0.00     0.081 A 
ATOM     27  C   UNL     1      78.580   1.953   8.396  1.00  0.00     0.067 A 
ATOM     28  C   UNL     1      80.327   3.168   6.687  1.00  0.00     0.131 A 
ATOM     29  C   UNL     1      78.341   3.200   7.841  1.00  0.00     0.116 A 
ATOM     30  N   UNL     1      79.188   3.826   6.993  1.00  0.00    -0.251 NA
BRANCH  28  31
ATOM     31  C   UNL     1      81.226   3.853   5.774  1.00  0.00     0.269 C 
ATOM     32  O   UNL     1      82.448   3.900   6.005  1.00  0.00    -0.268 OA
ATOM     33  N   UNL     1      80.656   4.427   4.631  1.00  0.00    -0.354 N 
ATOM     34  C   UNL     1      81.420   5.121   3.618  1.00  0.00     0.143 C 
ATOM     35  H   UNL     1      79.656   4.327   4.481  1.00  0.00     0.163 HD
ENDBRANCH  28  31
ENDBRANCH  24  25
ENDBRANCH   2  24
TORSDOF 6
ENDMDL
MODEL 11
REMARK VINA RESULT:    -7.394      1.393      1.810
REMARK INTER + INTRA:         -10.816
REMARK INTER:                  -9.948
REMARK INTRA:                  -0.868
REMARK UNBOUND:                -0.829
REMARK SMILES CNC(=O)c1cc(Oc2ccc(NC(=O)Nc3ccc(Cl)c(C(F)(F)F)c3)cc2)ccn1
REMARK SMILES IDX 12 1 9 2 11 3 28 4 10 5 29 6 13 7 16 8 14 9 15 11 17 13
REMARK SMILES IDX 21 14 20 15 22 16 19 17 27 18 18 19 23 20 24 21 25 22 26 23
REMARK SMILES IDX 8 24 7 25 6 26 30 27 5 28 31 29 32 30 3 31 4 32 2 33 1 34
REMARK H PARENT 16 10 13 12 2 35
REMARK Flexibility Score: inf
ROOT
ATOM      1  C   UNL     1      83.570   0.164  10.761  1.00  0.00     0.043 A 
ATOM      2  C   UNL     1      80.841  -0.063  10.339  1.00  0.00     0.127 A 
ATOM      3  C   UNL     1      83.085  -0.900  10.017  1.00  0.00     0.030 A 
ATOM      4  C   UNL     1      82.719   1.116  11.299  1.00  0.00     0.030 A 
ATOM      5  C   UNL     1      81.711  -1.013   9.804  1.00  0.00     0.049 A 
ATOM      6  C   UNL     1      81.345   1.001  11.085  1.00  0.00     0.049 A 
ENDROOT
BRANCH   1   7
ATOM      7  N   UNL     1      84.963   0.280  10.976  1.00  0.00    -0.308 N 
ATOM      8  N   UNL     1      87.051   0.322  11.961  1.00  0.00    -0.308 N 
ATOM      9  C   UNL     1      85.667   0.121  12.180  1.00  0.00     0.323 C 
ATOM     10  H   UNL     1      87.323   0.543  11.007  1.00  0.00     0.171 HD
ATOM     11  O   UNL     1      85.164  -0.153  13.266  1.00  0.00    -0.248 OA
ATOM     12  H   UNL     1      85.514   0.507  10.153  1.00  0.00     0.171 HD
BRANCH   8  13
ATOM     13  C   UNL     1      88.097   0.258  12.883  1.00  0.00     0.043 A 
ATOM     14  Cl  UNL     1      91.476   0.010  15.868  1.00  0.00    -0.084 Cl
ATOM     15  C   UNL     1      90.188   0.130  14.726  1.00  0.00     0.053 A 
ATOM     16  C   UNL     1      89.739   1.367  14.266  1.00  0.00     0.076 A 
ATOM     17  C   UNL     1      89.591  -1.044  14.266  1.00  0.00     0.023 A 
ATOM     18  C   UNL     1      88.693   1.432  13.344  1.00  0.00     0.040 A 
ATOM     19  C   UNL     1      88.545  -0.980  13.344  1.00  0.00     0.028 A 
BRANCH  16  20
ATOM     20  C   UNL     1      90.351   2.647  14.737  1.00  0.00     0.417 C 
ATOM     21  F   UNL     1      89.773   3.758  14.193  1.00  0.00    -0.166 F 
ATOM     22  F   UNL     1      90.268   2.824  16.087  1.00  0.00    -0.166 F 
ATOM     23  F   UNL     1      91.677   2.734  14.433  1.00  0.00    -0.166 F 
ENDBRANCH  16  20
ENDBRANCH   8  13
ENDBRANCH   1   7
BRANCH   2  24
ATOM     24  O   UNL     1      79.500  -0.176  10.132  1.00  0.00    -0.457 OA
BRANCH  24  25
ATOM     25  C   UNL     1      78.825   0.940   9.668  1.00  0.00     0.131 A 
ATOM     26  C   UNL     1      79.343   1.648   8.605  1.00  0.00     0.081 A 
ATOM     27  C   UNL     1      77.648   1.317  10.279  1.00  0.00     0.067 A 
ATOM     28  C   UNL     1      78.628   2.755   8.177  1.00  0.00     0.131 A 
ATOM     29  C   UNL     1      77.009   2.439   9.776  1.00  0.00     0.116 A 
ATOM     30  N   UNL     1      77.471   3.171   8.737  1.00  0.00    -0.251 NA
BRANCH  28  31
ATOM     31  C   UNL     1      79.111   3.552   7.062  1.00  0.00     0.269 C 
ATOM     32  O   UNL     1      78.686   4.709   6.880  1.00  0.00    -0.268 OA
ATOM     33  N   UNL     1      80.078   2.970   6.234  1.00  0.00    -0.354 N 
ATOM     34  C   UNL     1      80.672   3.643   5.101  1.00  0.00     0.143 C 
ATOM     35  H   UNL     1      80.408   2.034   6.453  1.00  0.00     0.163 HD
ENDBRANCH  28  31
ENDBRANCH  24  25
ENDBRANCH   2  24
TORSDOF 6
ENDMDL
MODEL 12
REMARK VINA RESULT:    -7.322      7.132      7.992
REMARK INTER + INTRA:         -10.719
REMARK INTER:                  -9.995
REMARK INTRA:                  -0.724
REMARK UNBOUND:                -0.829
REMARK SMILES CNC(=O)c1cc(Oc2ccc(NC(=O)Nc3ccc(Cl)c(C(F)(F)F)c3)cc2)ccn1
REMARK SMILES IDX 12 1 9 2 11 3 28 4 10 5 29 6 13 7 16 8 14 9 15 11 17 13
REMARK SMILES IDX 21 14 20 15 22 16 19 17 27 18 18 19 23 20 24 21 25 22 26 23
REMARK SMILES IDX 8 24 7 25 6 26 30 27 5 28 31 29 32 30 3 31 4 32 2 33 1 34
REMARK H PARENT 16 10 13 12 2 35
REMARK Flexibility Score: inf
ROOT
ATOM      1  C   UNL     1      85.947   6.311  12.807  1.00  0.00     0.043 A 
ATOM      2  C   UNL     1      84.706   8.172  11.173  1.00  0.00     0.127 A 
ATOM      3  C   UNL     1      84.727   6.845  13.192  1.00  0.00     0.030 A 
ATOM      4  C   UNL     1      86.560   6.690  11.624  1.00  0.00     0.030 A 
ATOM      5  C   UNL     1      84.103   7.781  12.368  1.00  0.00     0.049 A 
ATOM      6  C   UNL     1      85.934   7.627  10.801  1.00  0.00     0.049 A 
ENDROOT
BRANCH   1   7
ATOM      7  N   UNL     1      86.581   5.362  13.642  1.00  0.00    -0.308 N 
ATOM      8  N   UNL     1      87.771   3.536  14.407  1.00  0.00    -0.308 N 
ATOM      9  C   UNL     1      87.298   4.216  13.259  1.00  0.00     0.323 C 
ATOM     10  H   UNL     1      87.534   3.956  15.302  1.00  0.00     0.171 HD
ATOM     11  O   UNL     1      87.489   3.853  12.103  1.00  0.00    -0.248 OA
ATOM     12  H   UNL     1      86.504   5.538  14.640  1.00  0.00     0.171 HD
BRANCH   8  13
ATOM     13  C   UNL     1      88.521   2.361  14.475  1.00  0.00     0.043 A 
ATOM     14  Cl  UNL     1      90.983  -1.417  14.695  1.00  0.00    -0.084 Cl
ATOM     15  C   UNL     1      90.022   0.013  14.611  1.00  0.00     0.053 A 
ATOM     16  C   UNL     1      88.633  -0.052  14.502  1.00  0.00     0.076 A 
ATOM     17  C   UNL     1      90.661   1.253  14.652  1.00  0.00     0.023 A 
ATOM     18  C   UNL     1      87.882   1.122  14.434  1.00  0.00     0.040 A 
ATOM     19  C   UNL     1      89.910   2.427  14.584  1.00  0.00     0.028 A 
BRANCH  16  20
ATOM     20  C   UNL     1      87.911  -1.361  14.453  1.00  0.00     0.417 C 
ATOM     21  F   UNL     1      86.562  -1.232  14.290  1.00  0.00    -0.166 F 
ATOM     22  F   UNL     1      88.320  -2.169  13.433  1.00  0.00    -0.166 F 
ATOM     23  F   UNL     1      88.077  -2.090  15.593  1.00  0.00    -0.166 F 
ENDBRANCH  16  20
ENDBRANCH   8  13
ENDBRANCH   1   7
BRANCH   2  24
ATOM     24  O   UNL     1      84.097   9.088  10.370  1.00  0.00    -0.457 OA
BRANCH  24  25
ATOM     25  C   UNL     1      84.087  10.407  10.791  1.00  0.00     0.131 A 
ATOM     26  C   UNL     1      82.891  10.993  11.144  1.00  0.00     0.081 A 
ATOM     27  C   UNL     1      85.276  11.103  10.849  1.00  0.00     0.067 A 
ATOM     28  C   UNL     1      82.936  12.315  11.560  1.00  0.00     0.131 A 
ATOM     29  C   UNL     1      85.214  12.419  11.278  1.00  0.00     0.116 A 
ATOM     30  N   UNL     1      84.070  13.046  11.636  1.00  0.00    -0.251 NA
BRANCH  28  31
ATOM     31  C   UNL     1      81.716  13.002  11.949  1.00  0.00     0.269 C 
ATOM     32  O   UNL     1      80.603  12.500  11.707  1.00  0.00    -0.268 OA
ATOM     33  N   UNL     1      81.859  14.223  12.619  1.00  0.00    -0.354 N 
ATOM     34  C   UNL     1      80.743  15.012  13.089  1.00  0.00     0.143 C 
ATOM     35  H   UNL     1      82.795  14.565  12.817  1.00  0.00     0.163 HD
ENDBRANCH  28  31
ENDBRANCH  24  25
ENDBRANCH   2  24
TORSDOF 6
ENDMDL
MODEL 13
REMARK VINA RESULT:    -7.312      3.315      4.850
REMARK INTER + INTRA:         -10.705
REMARK INTER:                 -10.276
REMARK INTRA:                  -0.429
REMARK UNBOUND:                -0.829
REMARK SMILES CNC(=O)c1cc(Oc2ccc(NC(=O)Nc3ccc(Cl)c(C(F)(F)F)c3)cc2)ccn1
REMARK SMILES IDX 12 1 9 2 11 3 28 4 10 5 29 6 13 7 16 8 14 9 15 11 17 13
REMARK SMILES IDX 21 14 20 15 22 16 19 17 27 18 18 19 23 20 24 21 25 22 26 23
REMARK SMILES IDX 8 24 7 25 6 26 30 27 5 28 31 29 32 30 3 31 4 32 2 33 1 34
REMARK H PARENT 16 10 13 12 2 35
REMARK Flexibility Score: inf
ROOT
ATOM      1  C   UNL     1      82.901   1.563  10.843  1.00  0.00     0.043 A 
ATOM      2  C   UNL     1      80.829   1.116   9.060  1.00  0.00     0.127 A 
ATOM      3  C   UNL     1      81.672   1.143  11.324  1.00  0.00     0.030 A 
ATOM      4  C   UNL     1      83.116   1.766   9.490  1.00  0.00     0.030 A 
ATOM      5  C   UNL     1      80.629   0.917  10.426  1.00  0.00     0.049 A 
ATOM      6  C   UNL     1      82.072   1.540   8.592  1.00  0.00     0.049 A 
ENDROOT
BRANCH   1   7
ATOM      7  N   UNL     1      83.959   1.791  11.754  1.00  0.00    -0.308 N 
ATOM      8  N   UNL     1      85.885   1.561  13.008  1.00  0.00    -0.308 N 
ATOM      9  C   UNL     1      85.057   0.960  12.030  1.00  0.00     0.323 C 
ATOM     10  H   UNL     1      85.580   2.467  13.353  1.00  0.00     0.171 HD
ATOM     11  O   UNL     1      85.272  -0.128  11.505  1.00  0.00    -0.248 OA
ATOM     12  H   UNL     1      83.911   2.667  12.268  1.00  0.00     0.171 HD
BRANCH   8  13
ATOM     13  C   UNL     1      87.070   1.075  13.563  1.00  0.00     0.043 A 
ATOM     14  Cl  UNL     1      90.917  -0.457  15.364  1.00  0.00    -0.084 Cl
ATOM     15  C   UNL     1      89.438   0.106  14.674  1.00  0.00     0.053 A 
ATOM     16  C   UNL     1      88.467  -0.784  14.218  1.00  0.00     0.076 A 
ATOM     17  C   UNL     1      89.227   1.481  14.574  1.00  0.00     0.023 A 
ATOM     18  C   UNL     1      87.282  -0.300  13.662  1.00  0.00     0.040 A 
ATOM     19  C   UNL     1      88.042   1.966  14.019  1.00  0.00     0.028 A 
BRANCH  16  20
ATOM     20  C   UNL     1      88.656  -2.265  14.305  1.00  0.00     0.417 C 
ATOM     21  F   UNL     1      89.901  -2.677  13.924  1.00  0.00    -0.166 F 
ATOM     22  F   UNL     1      88.483  -2.761  15.564  1.00  0.00    -0.166 F 
ATOM     23  F   UNL     1      87.783  -2.950  13.514  1.00  0.00    -0.166 F 
ENDBRANCH  16  20
ENDBRANCH   8  13
ENDBRANCH   1   7
BRANCH   2  24
ATOM     24  O   UNL     1      79.811   0.898   8.184  1.00  0.00    -0.457 OA
BRANCH  24  25
ATOM     25  C   UNL     1      79.197  -0.343   8.206  1.00  0.00     0.131 A 
ATOM     26  C   UNL     1      79.972  -1.475   8.339  1.00  0.00     0.081 A 
ATOM     27  C   UNL     1      77.825  -0.418   8.095  1.00  0.00     0.067 A 
ATOM     28  C   UNL     1      79.310  -2.693   8.357  1.00  0.00     0.131 A 
ATOM     29  C   UNL     1      77.259  -1.682   8.125  1.00  0.00     0.116 A 
ATOM     30  N   UNL     1      77.969  -2.826   8.252  1.00  0.00    -0.251 NA
BRANCH  28  31
ATOM     31  C   UNL     1      80.057  -3.931   8.494  1.00  0.00     0.269 C 
ATOM     32  O   UNL     1      81.301  -3.928   8.440  1.00  0.00    -0.268 OA
ATOM     33  N   UNL     1      79.319  -5.100   8.710  1.00  0.00    -0.354 N 
ATOM     34  C   UNL     1      79.917  -6.404   8.890  1.00  0.00     0.143 C 
ATOM     35  H   UNL     1      78.307  -5.033   8.777  1.00  0.00     0.163 HD
ENDBRANCH  28  31
ENDBRANCH  24  25
ENDBRANCH   2  24
TORSDOF 6
ENDMDL
MODEL 14
REMARK VINA RESULT:    -7.307      6.716     10.861
REMARK INTER + INTRA:         -10.699
REMARK INTER:                  -9.723
REMARK INTRA:                  -0.976
REMARK UNBOUND:                -0.829
REMARK SMILES CNC(=O)c1cc(Oc2ccc(NC(=O)Nc3ccc(Cl)c(C(F)(F)F)c3)cc2)ccn1
REMARK SMILES IDX 12 1 9 2 11 3 28 4 10 5 29 6 13 7 16 8 14 9 15 11 17 13
REMARK SMILES IDX 21 14 20 15 22 16 19 17 27 18 18 19 23 20 24 21 25 22 26 23
REMARK SMILES IDX 8 24 7 25 6 26 30 27 5 28 31 29 32 30 3 31 4 32 2 33 1 34
REMARK H PARENT 16 10 13 12 2 35
REMARK Flexibility Score: inf
ROOT
ATOM      1  C   UNL     1      85.801   2.608  11.205  1.00  0.00     0.043 A 
ATOM      2  C   UNL     1      86.334   0.087  12.223  1.00  0.00     0.127 A 
ATOM      3  C   UNL     1      84.746   1.779  11.551  1.00  0.00     0.030 A 
ATOM      4  C   UNL     1      87.117   2.202  11.357  1.00  0.00     0.030 A 
ATOM      5  C   UNL     1      85.015   0.511  12.064  1.00  0.00     0.049 A 
ATOM      6  C   UNL     1      87.385   0.932  11.870  1.00  0.00     0.049 A 
ENDROOT
BRANCH   1   7
ATOM      7  N   UNL     1      85.529   3.895  10.685  1.00  0.00    -0.308 N 
ATOM      8  N   UNL     1      85.115   6.159  10.492  1.00  0.00    -0.308 N 
ATOM      9  C   UNL     1      85.381   5.099  11.392  1.00  0.00     0.323 C 
ATOM     10  H   UNL     1      85.072   5.906   9.508  1.00  0.00     0.171 HD
ATOM     11  O   UNL     1      85.467   5.222  12.610  1.00  0.00    -0.248 OA
ATOM     12  H   UNL     1      85.431   3.945   9.675  1.00  0.00     0.171 HD
BRANCH   8  13
ATOM     13  C   UNL     1      84.903   7.509  10.774  1.00  0.00     0.043 A 
ATOM     14  Cl  UNL     1      84.253  11.886  11.670  1.00  0.00    -0.084 Cl
ATOM     15  C   UNL     1      84.480  10.208  11.339  1.00  0.00     0.053 A 
ATOM     16  C   UNL     1      83.583   9.249  11.807  1.00  0.00     0.076 A 
ATOM     17  C   UNL     1      85.589   9.818  10.589  1.00  0.00     0.023 A 
ATOM     18  C   UNL     1      83.794   7.898  11.525  1.00  0.00     0.040 A 
ATOM     19  C   UNL     1      85.801   8.468  10.306  1.00  0.00     0.028 A 
BRANCH  16  20
ATOM     20  C   UNL     1      82.383   9.626  12.616  1.00  0.00     0.417 C 
ATOM     21  F   UNL     1      82.692  10.262  13.783  1.00  0.00    -0.166 F 
ATOM     22  F   UNL     1      81.531  10.468  11.963  1.00  0.00    -0.166 F 
ATOM     23  F   UNL     1      81.633   8.544  12.972  1.00  0.00    -0.166 F 
ENDBRANCH  16  20
ENDBRANCH   8  13
ENDBRANCH   1   7
BRANCH   2  24
ATOM     24  O   UNL     1      86.596  -1.152  12.722  1.00  0.00    -0.457 OA
BRANCH  24  25
ATOM     25  C   UNL     1      87.395  -1.994  11.967  1.00  0.00     0.131 A 
ATOM     26  C   UNL     1      88.666  -2.292  12.408  1.00  0.00     0.081 A 
ATOM     27  C   UNL     1      86.899  -2.516  10.791  1.00  0.00     0.067 A 
ATOM     28  C   UNL     1      89.425  -3.140  11.616  1.00  0.00     0.131 A 
ATOM     29  C   UNL     1      87.737  -3.354  10.073  1.00  0.00     0.116 A 
ATOM     30  N   UNL     1      88.992  -3.680  10.456  1.00  0.00    -0.251 NA
BRANCH  28  31
ATOM     31  C   UNL     1      90.775  -3.501  12.014  1.00  0.00     0.269 C 
ATOM     32  O   UNL     1      91.496  -4.181  11.261  1.00  0.00    -0.268 OA
ATOM     33  N   UNL     1      91.220  -3.030  13.255  1.00  0.00    -0.354 N 
ATOM     34  C   UNL     1      92.543  -3.283  13.780  1.00  0.00     0.143 C 
ATOM     35  H   UNL     1      90.596  -2.451  13.810  1.00  0.00     0.163 HD
ENDBRANCH  28  31
ENDBRANCH  24  25
ENDBRANCH   2  24
TORSDOF 6
ENDMDL
MODEL 15
REMARK VINA RESULT:    -7.261      8.263     10.539
REMARK INTER + INTRA:         -10.636
REMARK INTER:                  -9.865
REMARK INTRA:                  -0.771
REMARK UNBOUND:                -0.829
REMARK SMILES CNC(=O)c1cc(Oc2ccc(NC(=O)Nc3ccc(Cl)c(C(F)(F)F)c3)cc2)ccn1
REMARK SMILES IDX 12 1 9 2 11 3 28 4 10 5 29 6 13 7 16 8 14 9 15 11 17 13
REMARK SMILES IDX 21 14 20 15 22 16 19 17 27 18 18 19 23 20 24 21 25 22 26 23
REMARK SMILES IDX 8 24 7 25 6 26 30 27 5 28 31 29 32 30 3 31 4 32 2 33 1 34
REMARK H PARENT 16 10 13 12 2 35
REMARK Flexibility Score: inf
ROOT
ATOM      1  C   UNL     1      85.471   6.604  12.054  1.00  0.00     0.043 A 
ATOM      2  C   UNL     1      86.009   3.953  11.457  1.00  0.00     0.127 A 
ATOM      3  C   UNL     1      85.329   5.644  13.044  1.00  0.00     0.030 A 
ATOM      4  C   UNL     1      85.875   6.266  10.773  1.00  0.00     0.030 A 
ATOM      5  C   UNL     1      85.601   4.309  12.743  1.00  0.00     0.049 A 
ATOM      6  C   UNL     1      86.146   4.931  10.473  1.00  0.00     0.049 A 
ENDROOT
BRANCH   1   7
ATOM      7  N   UNL     1      85.197   7.958  12.359  1.00  0.00    -0.308 N 
ATOM      8  N   UNL     1      84.260  10.068  12.400  1.00  0.00    -0.308 N 
ATOM      9  C   UNL     1      84.189   8.777  11.825  1.00  0.00     0.323 C 
ATOM     10  H   UNL     1      84.996  10.210  13.087  1.00  0.00     0.171 HD
ATOM     11  O   UNL     1      83.367   8.431  10.982  1.00  0.00    -0.248 OA
ATOM     12  H   UNL     1      85.808   8.381  13.052  1.00  0.00     0.171 HD
BRANCH   8  13
ATOM     13  C   UNL     1      83.451  11.179  12.151  1.00  0.00     0.043 A 
ATOM     14  Cl  UNL     1      80.803  14.746  11.347  1.00  0.00    -0.084 Cl
ATOM     15  C   UNL     1      81.835  13.397  11.652  1.00  0.00     0.053 A 
ATOM     16  C   UNL     1      83.222  13.509  11.559  1.00  0.00     0.076 A 
ATOM     17  C   UNL     1      81.256  12.174  11.994  1.00  0.00     0.023 A 
ATOM     18  C   UNL     1      84.031  12.400  11.808  1.00  0.00     0.040 A 
ATOM     19  C   UNL     1      82.064  11.065  12.244  1.00  0.00     0.028 A 
BRANCH  16  20
ATOM     20  C   UNL     1      83.881  14.801  11.193  1.00  0.00     0.417 C 
ATOM     21  F   UNL     1      83.545  15.249   9.948  1.00  0.00    -0.166 F 
ATOM     22  F   UNL     1      83.574  15.826  12.039  1.00  0.00    -0.166 F 
ATOM     23  F   UNL     1      85.241  14.712  11.199  1.00  0.00    -0.166 F 
ENDBRANCH  16  20
ENDBRANCH   8  13
ENDBRANCH   1   7
BRANCH   2  24
ATOM     24  O   UNL     1      86.271   2.650  11.163  1.00  0.00    -0.457 OA
BRANCH  24  25
ATOM     25  C   UNL     1      85.304   1.711  11.481  1.00  0.00     0.131 A 
ATOM     26  C   UNL     1      84.013   1.896  11.035  1.00  0.00     0.081 A 
ATOM     27  C   UNL     1      85.655   0.612  12.235  1.00  0.00     0.067 A 
ATOM     28  C   UNL     1      83.083   0.928  11.378  1.00  0.00     0.131 A 
ATOM     29  C   UNL     1      84.651  -0.299  12.525  1.00  0.00     0.116 A 
ATOM     30  N   UNL     1      83.370  -0.168  12.115  1.00  0.00    -0.251 NA
BRANCH  28  31
ATOM     31  C   UNL     1      81.702   1.052  10.945  1.00  0.00     0.269 C 
ATOM     32  O   UNL     1      80.770   0.955  11.765  1.00  0.00    -0.268 OA
ATOM     33  N   UNL     1      81.481   1.308   9.586  1.00  0.00    -0.354 N 
ATOM     34  C   UNL     1      80.168   1.481   9.007  1.00  0.00     0.143 C 
ATOM     35  H   UNL     1      82.284   1.410   8.971  1.00  0.00     0.163 HD
ENDBRANCH  28  31
ENDBRANCH  24  25
ENDBRANCH   2  24
TORSDOF 6
ENDMDL
MODEL 16
REMARK VINA RESULT:    -7.243      2.561      3.886
REMARK INTER + INTRA:         -10.612
REMARK INTER:                  -9.838
REMARK INTRA:                  -0.774
REMARK UNBOUND:                -0.829
REMARK SMILES CNC(=O)c1cc(Oc2ccc(NC(=O)Nc3ccc(Cl)c(C(F)(F)F)c3)cc2)ccn1
REMARK SMILES IDX 12 1 9 2 11 3 28 4 10 5 29 6 13 7 16 8 14 9 15 11 17 13
REMARK SMILES IDX 21 14 20 15 22 16 19 17 27 18 18 19 23 20 24 21 25 22 26 23
REMARK SMILES IDX 8 24 7 25 6 26 30 27 5 28 31 29 32 30 3 31 4 32 2 33 1 34
REMARK H PARENT 16 10 13 12 2 35
REMARK Flexibility Score: inf
ROOT
ATOM      1  C   UNL     1      83.071  -0.005  11.250  1.00  0.00     0.043 A 
ATOM      2  C   UNL     1      81.305   0.333   9.143  1.00  0.00     0.127 A 
ATOM      3  C   UNL     1      83.134  -0.868  10.167  1.00  0.00     0.030 A 
ATOM      4  C   UNL     1      82.142   1.021  11.302  1.00  0.00     0.030 A 
ATOM      5  C   UNL     1      82.246  -0.696   9.106  1.00  0.00     0.049 A 
ATOM      6  C   UNL     1      81.253   1.192  10.240  1.00  0.00     0.049 A 
ENDROOT
BRANCH   1   7
ATOM      7  N   UNL     1      83.973  -0.178  12.326  1.00  0.00    -0.308 N 
ATOM      8  N   UNL     1      85.887  -0.252  13.616  1.00  0.00    -0.308 N 
ATOM      9  C   UNL     1      85.360   0.041  12.335  1.00  0.00     0.323 C 
ATOM     10  H   UNL     1      85.216  -0.565  14.312  1.00  0.00     0.171 HD
ATOM     11  O   UNL     1      86.023   0.429  11.378  1.00  0.00    -0.248 OA
ATOM     12  H   UNL     1      83.557  -0.500  13.196  1.00  0.00     0.171 HD
BRANCH   8  13
ATOM     13  C   UNL     1      87.210  -0.169  14.053  1.00  0.00     0.043 A 
ATOM     14  Cl  UNL     1      91.491   0.056  15.471  1.00  0.00    -0.084 Cl
ATOM     15  C   UNL     1      89.854  -0.005  14.927  1.00  0.00     0.053 A 
ATOM     16  C   UNL     1      89.127   1.159  14.684  1.00  0.00     0.076 A 
ATOM     17  C   UNL     1      89.259  -1.253  14.734  1.00  0.00     0.023 A 
ATOM     18  C   UNL     1      87.804   1.077  14.247  1.00  0.00     0.040 A 
ATOM     19  C   UNL     1      87.937  -1.335  14.296  1.00  0.00     0.028 A 
BRANCH  16  20
ATOM     20  C   UNL     1      89.727   2.514  14.881  1.00  0.00     0.417 C 
ATOM     21  F   UNL     1      90.231   2.708  16.135  1.00  0.00    -0.166 F 
ATOM     22  F   UNL     1      90.762   2.778  14.033  1.00  0.00    -0.166 F 
ATOM     23  F   UNL     1      88.825   3.517  14.687  1.00  0.00    -0.166 F 
ENDBRANCH  16  20
ENDBRANCH   8  13
ENDBRANCH   1   7
BRANCH   2  24
ATOM     24  O   UNL     1      80.436   0.498   8.108  1.00  0.00    -0.457 OA
BRANCH  24  25
ATOM     25  C   UNL     1      79.246  -0.208   8.148  1.00  0.00     0.131 A 
ATOM     26  C   UNL     1      79.280  -1.584   8.229  1.00  0.00     0.081 A 
ATOM     27  C   UNL     1      78.053   0.481   8.108  1.00  0.00     0.067 A 
ATOM     28  C   UNL     1      78.062  -2.243   8.269  1.00  0.00     0.131 A 
ATOM     29  C   UNL     1      76.889  -0.271   8.153  1.00  0.00     0.116 A 
ATOM     30  N   UNL     1      76.863  -1.621   8.232  1.00  0.00    -0.251 NA
BRANCH  28  31
ATOM     31  C   UNL     1      78.016  -3.693   8.354  1.00  0.00     0.269 C 
ATOM     32  O   UNL     1      78.851  -4.313   9.039  1.00  0.00    -0.268 OA
ATOM     33  N   UNL     1      76.989  -4.340   7.657  1.00  0.00    -0.354 N 
ATOM     34  C   UNL     1      76.796  -5.773   7.663  1.00  0.00     0.143 C 
ATOM     35  H   UNL     1      76.318  -3.776   7.142  1.00  0.00     0.163 HD
ENDBRANCH  28  31
ENDBRANCH  24  25
ENDBRANCH   2  24
TORSDOF 6
ENDMDL
MODEL 17
REMARK VINA RESULT:    -7.229      3.325      4.777
REMARK INTER + INTRA:         -10.594
REMARK INTER:                  -9.864
REMARK INTRA:                  -0.730
REMARK UNBOUND:                -0.829
REMARK SMILES CNC(=O)c1cc(Oc2ccc(NC(=O)Nc3ccc(Cl)c(C(F)(F)F)c3)cc2)ccn1
REMARK SMILES IDX 12 1 9 2 11 3 28 4 10 5 29 6 13 7 16 8 14 9 15 11 17 13
REMARK SMILES IDX 21 14 20 15 22 16 19 17 27 18 18 19 23 20 24 21 25 22 26 23
REMARK SMILES IDX 8 24 7 25 6 26 30 27 5 28 31 29 32 30 3 31 4 32 2 33 1 34
REMARK H PARENT 16 10 13 12 2 35
REMARK Flexibility Score: inf
ROOT
ATOM      1  C   UNL     1      82.478   1.335  10.312  1.00  0.00     0.043 A 
ATOM      2  C   UNL     1      79.844   1.192   9.464  1.00  0.00     0.127 A 
ATOM      3  C   UNL     1      81.491   0.991  11.221  1.00  0.00     0.030 A 
ATOM      4  C   UNL     1      82.176   1.611   8.988  1.00  0.00     0.030 A 
ATOM      5  C   UNL     1      80.165   0.918  10.793  1.00  0.00     0.049 A 
ATOM      6  C   UNL     1      80.849   1.538   8.561  1.00  0.00     0.049 A 
ENDROOT
BRANCH   1   7
ATOM      7  N   UNL     1      83.822   1.409  10.745  1.00  0.00    -0.308 N 
ATOM      8  N   UNL     1      85.965   0.856  11.405  1.00  0.00    -0.308 N 
ATOM      9  C   UNL     1      84.713   0.349  10.983  1.00  0.00     0.323 C 
ATOM     10  H   UNL     1      86.036   1.868  11.472  1.00  0.00     0.171 HD
ATOM     11  O   UNL     1      84.450  -0.842  10.847  1.00  0.00    -0.248 OA
ATOM     12  H   UNL     1      84.180   2.347  10.899  1.00  0.00     0.171 HD
BRANCH   8  13
ATOM     13  C   UNL     1      87.121   0.150  11.744  1.00  0.00     0.043 A 
ATOM     14  Cl  UNL     1      90.873  -2.128  12.801  1.00  0.00    -0.084 Cl
ATOM     15  C   UNL     1      89.430  -1.261  12.420  1.00  0.00     0.053 A 
ATOM     16  C   UNL     1      88.396  -1.132  13.345  1.00  0.00     0.076 A 
ATOM     17  C   UNL     1      89.311  -0.684  11.155  1.00  0.00     0.023 A 
ATOM     18  C   UNL     1      87.240  -0.427  13.008  1.00  0.00     0.040 A 
ATOM     19  C   UNL     1      88.156   0.022  10.817  1.00  0.00     0.028 A 
BRANCH  16  20
ATOM     20  C   UNL     1      88.485  -1.738  14.710  1.00  0.00     0.417 C 
ATOM     21  F   UNL     1      87.447  -1.392  15.527  1.00  0.00    -0.166 F 
ATOM     22  F   UNL     1      88.495  -3.102  14.700  1.00  0.00    -0.166 F 
ATOM     23  F   UNL     1      89.616  -1.364  15.373  1.00  0.00    -0.166 F 
ENDBRANCH  16  20
ENDBRANCH   8  13
ENDBRANCH   1   7
BRANCH   2  24
ATOM     24  O   UNL     1      78.550   1.123   9.048  1.00  0.00    -0.457 OA
BRANCH  24  25
ATOM     25  C   UNL     1      78.058  -0.118   8.679  1.00  0.00     0.131 A 
ATOM     26  C   UNL     1      78.832  -1.239   8.886  1.00  0.00     0.081 A 
ATOM     27  C   UNL     1      76.803  -0.203   8.115  1.00  0.00     0.067 A 
ATOM     28  C   UNL     1      78.293  -2.456   8.502  1.00  0.00     0.131 A 
ATOM     29  C   UNL     1      76.355  -1.467   7.765  1.00  0.00     0.116 A 
ATOM     30  N   UNL     1      77.071  -2.600   7.944  1.00  0.00    -0.251 NA
BRANCH  28  31
ATOM     31  C   UNL     1      79.049  -3.683   8.688  1.00  0.00     0.269 C 
ATOM     32  O   UNL     1      80.294  -3.670   8.662  1.00  0.00    -0.268 OA
ATOM     33  N   UNL     1      78.317  -4.854   8.917  1.00  0.00    -0.354 N 
ATOM     34  C   UNL     1      78.923  -6.146   9.144  1.00  0.00     0.143 C 
ATOM     35  H   UNL     1      77.303  -4.795   8.960  1.00  0.00     0.163 HD
ENDBRANCH  28  31
ENDBRANCH  24  25
ENDBRANCH   2  24
TORSDOF 6
ENDMDL
MODEL 18
REMARK VINA RESULT:    -7.192      2.813      3.994
REMARK INTER + INTRA:         -10.544
REMARK INTER:                  -9.555
REMARK INTRA:                  -0.989
REMARK UNBOUND:                -0.829
REMARK SMILES CNC(=O)c1cc(Oc2ccc(NC(=O)Nc3ccc(Cl)c(C(F)(F)F)c3)cc2)ccn1
REMARK SMILES IDX 12 1 9 2 11 3 28 4 10 5 29 6 13 7 16 8 14 9 15 11 17 13
REMARK SMILES IDX 21 14 20 15 22 16 19 17 27 18 18 19 23 20 24 21 25 22 26 23
REMARK SMILES IDX 8 24 7 25 6 26 30 27 5 28 31 29 32 30 3 31 4 32 2 33 1 34
REMARK H PARENT 16 10 13 12 2 35
REMARK Flexibility Score: inf
ROOT
ATOM      1  C   UNL     1      83.380   0.075  10.950  1.00  0.00     0.043 A 
ATOM      2  C   UNL     1      81.435   1.254   9.368  1.00  0.00     0.127 A 
ATOM      3  C   UNL     1      82.296   0.691  11.554  1.00  0.00     0.030 A 
ATOM      4  C   UNL     1      83.512   0.038   9.571  1.00  0.00     0.030 A 
ATOM      5  C   UNL     1      81.316   1.284  10.758  1.00  0.00     0.049 A 
ATOM      6  C   UNL     1      82.532   0.632   8.775  1.00  0.00     0.049 A 
ENDROOT
BRANCH   1   7
ATOM      7  N   UNL     1      84.373  -0.527  11.757  1.00  0.00    -0.308 N 
ATOM      8  N   UNL     1      86.361  -0.996  12.835  1.00  0.00    -0.308 N 
ATOM      9  C   UNL     1      85.701  -0.115  11.945  1.00  0.00     0.323 C 
ATOM     10  H   UNL     1      85.802  -1.766  13.193  1.00  0.00     0.171 HD
ATOM     11  O   UNL     1      86.221   0.865  11.419  1.00  0.00    -0.248 OA
ATOM     12  H   UNL     1      84.080  -1.361  12.260  1.00  0.00     0.171 HD
BRANCH   8  13
ATOM     13  C   UNL     1      87.680  -0.951  13.288  1.00  0.00     0.043 A 
ATOM     14  Cl  UNL     1      91.941  -0.768  14.772  1.00  0.00    -0.084 Cl
ATOM     15  C   UNL     1      90.317  -0.859  14.193  1.00  0.00     0.053 A 
ATOM     16  C   UNL     1      89.913  -1.872  13.325  1.00  0.00     0.076 A 
ATOM     17  C   UNL     1      89.403   0.109  14.608  1.00  0.00     0.023 A 
ATOM     18  C   UNL     1      88.594  -1.919  12.872  1.00  0.00     0.040 A 
ATOM     19  C   UNL     1      88.084   0.063  14.156  1.00  0.00     0.028 A 
BRANCH  16  20
ATOM     20  C   UNL     1      90.863  -2.927  12.855  1.00  0.00     0.417 C 
ATOM     21  F   UNL     1      91.921  -2.432  12.150  1.00  0.00    -0.166 F 
ATOM     22  F   UNL     1      91.415  -3.652  13.870  1.00  0.00    -0.166 F 
ATOM     23  F   UNL     1      90.266  -3.838  12.033  1.00  0.00    -0.166 F 
ENDBRANCH  16  20
ENDBRANCH   8  13
ENDBRANCH   1   7
BRANCH   2  24
ATOM     24  O   UNL     1      80.480   1.836   8.591  1.00  0.00    -0.457 OA
BRANCH  24  25
ATOM     25  C   UNL     1      79.212   1.280   8.608  1.00  0.00     0.131 A 
ATOM     26  C   UNL     1      79.060  -0.062   8.335  1.00  0.00     0.081 A 
ATOM     27  C   UNL     1      78.129   2.084   8.897  1.00  0.00     0.067 A 
ATOM     28  C   UNL     1      77.770  -0.569   8.366  1.00  0.00     0.131 A 
ATOM     29  C   UNL     1      76.882   1.481   8.903  1.00  0.00     0.116 A 
ATOM     30  N   UNL     1      76.673   0.170   8.643  1.00  0.00    -0.251 NA
BRANCH  28  31
ATOM     31  C   UNL     1      77.529  -1.975   8.090  1.00  0.00     0.269 C 
ATOM     32  O   UNL     1      76.577  -2.323   7.368  1.00  0.00    -0.268 OA
ATOM     33  N   UNL     1      78.423  -2.896   8.649  1.00  0.00    -0.354 N 
ATOM     34  C   UNL     1      78.331  -4.324   8.447  1.00  0.00     0.143 C 
ATOM     35  H   UNL     1      79.200  -2.548   9.203  1.00  0.00     0.163 HD
ENDBRANCH  28  31
ENDBRANCH  24  25
ENDBRANCH   2  24
TORSDOF 6
ENDMDL
MODEL 19
REMARK VINA RESULT:    -7.165      6.979      9.865
REMARK INTER + INTRA:         -10.507
REMARK INTER:                  -9.574
REMARK INTRA:                  -0.934
REMARK UNBOUND:                -0.829
REMARK SMILES CNC(=O)c1cc(Oc2ccc(NC(=O)Nc3ccc(Cl)c(C(F)(F)F)c3)cc2)ccn1
REMARK SMILES IDX 12 1 9 2 11 3 28 4 10 5 29 6 13 7 16 8 14 9 15 11 17 13
REMARK SMILES IDX 21 14 20 15 22 16 19 17 27 18 18 19 23 20 24 21 25 22 26 23
REMARK SMILES IDX 8 24 7 25 6 26 30 27 5 28 31 29 32 30 3 31 4 32 2 33 1 34
REMARK H PARENT 16 10 13 12 2 35
REMARK Flexibility Score: inf
ROOT
ATOM      1  C   UNL     1      86.077   3.253  11.101  1.00  0.00     0.043 A 
ATOM      2  C   UNL     1      86.905   0.793  12.068  1.00  0.00     0.127 A 
ATOM      3  C   UNL     1      87.320   2.763  10.732  1.00  0.00     0.030 A 
ATOM      4  C   UNL     1      85.241   2.540  11.944  1.00  0.00     0.030 A 
ATOM      5  C   UNL     1      87.736   1.523  11.219  1.00  0.00     0.049 A 
ATOM      6  C   UNL     1      85.659   1.301  12.431  1.00  0.00     0.049 A 
ENDROOT
BRANCH   1   7
ATOM      7  N   UNL     1      85.655   4.509  10.607  1.00  0.00    -0.308 N 
ATOM      8  N   UNL     1      85.026   6.726  10.452  1.00  0.00    -0.308 N 
ATOM      9  C   UNL     1      85.449   5.697  11.327  1.00  0.00     0.323 C 
ATOM     10  H   UNL     1      84.937   6.469   9.473  1.00  0.00     0.171 HD
ATOM     11  O   UNL     1      85.609   5.829  12.537  1.00  0.00    -0.248 OA
ATOM     12  H   UNL     1      85.482   4.549   9.606  1.00  0.00     0.171 HD
BRANCH   8  13
ATOM     13  C   UNL     1      84.714   8.053  10.755  1.00  0.00     0.043 A 
ATOM     14  Cl  UNL     1      83.739  12.355  11.715  1.00  0.00    -0.084 Cl
ATOM     15  C   UNL     1      84.091  10.703  11.360  1.00  0.00     0.053 A 
ATOM     16  C   UNL     1      83.287   9.671  11.841  1.00  0.00     0.076 A 
ATOM     17  C   UNL     1      85.208  10.411  10.577  1.00  0.00     0.023 A 
ATOM     18  C   UNL     1      83.598   8.345  11.538  1.00  0.00     0.040 A 
ATOM     19  C   UNL     1      85.519   9.085  10.274  1.00  0.00     0.028 A 
BRANCH  16  20
ATOM     20  C   UNL     1      82.083   9.943  12.685  1.00  0.00     0.417 C 
ATOM     21  F   UNL     1      81.406   8.815  13.047  1.00  0.00    -0.166 F 
ATOM     22  F   UNL     1      82.373  10.579  13.856  1.00  0.00    -0.166 F 
ATOM     23  F   UNL     1      81.170  10.734  12.051  1.00  0.00    -0.166 F 
ENDBRANCH  16  20
ENDBRANCH   8  13
ENDBRANCH   1   7
BRANCH   2  24
ATOM     24  O   UNL     1      87.313  -0.415  12.545  1.00  0.00    -0.457 OA
BRANCH  24  25
ATOM     25  C   UNL     1      87.345  -1.479  11.659  1.00  0.00     0.131 A 
ATOM     26  C   UNL     1      86.207  -1.801  10.952  1.00  0.00     0.081 A 
ATOM     27  C   UNL     1      88.515  -2.191  11.505  1.00  0.00     0.067 A 
ATOM     28  C   UNL     1      86.292  -2.873  10.077  1.00  0.00     0.131 A 
ATOM     29  C   UNL     1      88.497  -3.245  10.605  1.00  0.00     0.116 A 
ATOM     30  N   UNL     1      87.411  -3.606   9.885  1.00  0.00    -0.251 NA
BRANCH  28  31
ATOM     31  C   UNL     1      85.135  -3.274   9.295  1.00  0.00     0.269 C 
ATOM     32  O   UNL     1      84.079  -3.619   9.859  1.00  0.00    -0.268 OA
ATOM     33  N   UNL     1      85.261  -3.230   7.902  1.00  0.00    -0.354 N 
ATOM     34  C   UNL     1      84.193  -3.574   6.990  1.00  0.00     0.143 C 
ATOM     35  H   UNL     1      86.137  -2.908   7.501  1.00  0.00     0.163 HD
ENDBRANCH  28  31
ENDBRANCH  24  25
ENDBRANCH   2  24
TORSDOF 6
ENDMDL
MODEL 20
REMARK VINA RESULT:    -7.044      6.749     11.419
REMARK INTER + INTRA:         -10.343
REMARK INTER:                  -9.514
REMARK INTRA:                  -0.829
REMARK UNBOUND:                -0.829
REMARK SMILES CNC(=O)c1cc(Oc2ccc(NC(=O)Nc3ccc(Cl)c(C(F)(F)F)c3)cc2)ccn1
REMARK SMILES IDX 12 1 9 2 11 3 28 4 10 5 29 6 13 7 16 8 14 9 15 11 17 13
REMARK SMILES IDX 21 14 20 15 22 16 19 17 27 18 18 19 23 20 24 21 25 22 26 23
REMARK SMILES IDX 8 24 7 25 6 26 30 27 5 28 31 29 32 30 3 31 4 32 2 33 1 34
REMARK H PARENT 16 10 13 12 2 35
REMARK Flexibility Score: inf
ROOT
ATOM      1  C   UNL     1      81.418   0.726   9.920  1.00  0.00     0.043 A 
ATOM      2  C   UNL     1      83.781   2.010  10.584  1.00  0.00     0.127 A 
ATOM      3  C   UNL     1      82.237   1.203   8.909  1.00  0.00     0.030 A 
ATOM      4  C   UNL     1      81.754   0.879  11.255  1.00  0.00     0.030 A 
ATOM      5  C   UNL     1      83.428   1.849   9.244  1.00  0.00     0.049 A 
ATOM      6  C   UNL     1      82.945   1.526  11.589  1.00  0.00     0.049 A 
ENDROOT
BRANCH   1   7
ATOM      7  N   UNL     1      80.211   0.071   9.581  1.00  0.00    -0.308 N 
ATOM      8  N   UNL     1      78.674  -1.471   8.809  1.00  0.00    -0.308 N 
ATOM      9  C   UNL     1      80.051  -1.185   8.972  1.00  0.00     0.323 C 
ATOM     10  H   UNL     1      78.030  -0.758   9.140  1.00  0.00     0.171 HD
ATOM     11  O   UNL     1      80.965  -1.929   8.630  1.00  0.00    -0.248 OA
ATOM     12  H   UNL     1      79.360   0.577   9.810  1.00  0.00     0.171 HD
BRANCH   8  13
ATOM     13  C   UNL     1      78.080  -2.604   8.250  1.00  0.00     0.043 A 
ATOM     14  Cl  UNL     1      76.142  -6.245   6.415  1.00  0.00    -0.084 Cl
ATOM     15  C   UNL     1      76.892  -4.867   7.135  1.00  0.00     0.053 A 
ATOM     16  C   UNL     1      77.569  -4.963   8.349  1.00  0.00     0.076 A 
ATOM     17  C   UNL     1      76.807  -3.639   6.478  1.00  0.00     0.023 A 
ATOM     18  C   UNL     1      78.164  -3.831   8.908  1.00  0.00     0.040 A 
ATOM     19  C   UNL     1      77.402  -2.507   7.035  1.00  0.00     0.028 A 
BRANCH  16  20
ATOM     20  C   UNL     1      77.681  -6.260   9.085  1.00  0.00     0.417 C 
ATOM     21  F   UNL     1      78.323  -7.234   8.377  1.00  0.00    -0.166 F 
ATOM     22  F   UNL     1      78.365  -6.160  10.261  1.00  0.00    -0.166 F 
ATOM     23  F   UNL     1      76.463  -6.781   9.409  1.00  0.00    -0.166 F 
ENDBRANCH  16  20
ENDBRANCH   8  13
ENDBRANCH   1   7
BRANCH   2  24
ATOM     24  O   UNL     1      84.941   2.643  10.910  1.00  0.00    -0.457 OA
BRANCH  24  25
ATOM     25  C   UNL     1      85.746   2.055  11.872  1.00  0.00     0.131 A 
ATOM     26  C   UNL     1      86.069   0.720  11.757  1.00  0.00     0.081 A 
ATOM     27  C   UNL     1      86.206   2.820  12.923  1.00  0.00     0.067 A 
ATOM     28  C   UNL     1      86.878   0.181  12.744  1.00  0.00     0.131 A 
ATOM     29  C   UNL     1      87.009   2.186  13.858  1.00  0.00     0.116 A 
ATOM     30  N   UNL     1      87.358   0.881  13.796  1.00  0.00    -0.251 NA
BRANCH  28  31
ATOM     31  C   UNL     1      87.263  -1.219  12.692  1.00  0.00     0.269 C 
ATOM     32  O   UNL     1      86.960  -1.922  11.710  1.00  0.00    -0.268 OA
ATOM     33  N   UNL     1      87.999  -1.719  13.774  1.00  0.00    -0.354 N 
ATOM     34  C   UNL     1      88.474  -3.081  13.858  1.00  0.00     0.143 C 
ATOM     35  H   UNL     1      88.244  -1.086  14.531  1.00  0.00     0.163 HD
ENDBRANCH  28  31
ENDBRANCH  24  25
ENDBRANCH   2  24
TORSDOF 6
ENDMDL
