MODEL 1
REMARK VINA RESULT:    -5.778      0.000      0.000
REMARK INTER + INTRA:          -8.413
REMARK INTER:                  -8.504
REMARK INTRA:                   0.090
REMARK UNBOUND:                -0.271
REMARK SMILES C=CCOC(=O)C1=CS[C@H]2[C@@H]([C@@H](C)OC(C)=O)C(=O)N12
REMARK SMILES IDX 9 1 8 2 7 3 20 4 10 5 11 6 18 7 19 8 5 9 6 10 4 11 3 12 2 13
REMARK SMILES IDX 1 14 12 15 13 16 14 17 15 18 17 19 16 20
REMARK H PARENT
REMARK Flexibility Score: inf
ROOT
ATOM      1  S   UNL     1      66.501  20.226  11.286  1.00  0.00    -0.105 SA
ATOM      2  C   UNL     1      65.634  20.852   9.893  1.00  0.00     0.004 C 
ATOM      3  C   UNL     1      64.963  21.993  10.083  1.00  0.00     0.137 C 
ATOM      4  N   UNL     1      64.990  22.485  11.364  1.00  0.00    -0.291 N 
ATOM      5  C   UNL     1      65.580  21.506  12.295  1.00  0.00     0.102 C 
ATOM      6  C   UNL     1      66.400  22.672  12.903  1.00  0.00     0.106 C 
ATOM      7  C   UNL     1      65.894  23.466  11.688  1.00  0.00     0.238 C 
ATOM      8  O   UNL     1      66.218  24.486  11.127  1.00  0.00    -0.274 OA
ENDROOT
BRANCH   3   9
ATOM      9  C   UNL     1      64.222  22.731   9.025  1.00  0.00     0.355 C 
ATOM     10  O   UNL     1      63.065  23.107   9.141  1.00  0.00    -0.244 OA
BRANCH   9  11
ATOM     11  O   UNL     1      65.005  22.909   7.931  1.00  0.00    -0.457 OA
BRANCH  11  12
ATOM     12  C   UNL     1      64.320  23.509   6.830  1.00  0.00     0.110 C 
BRANCH  12  13
ATOM     13  C   UNL     1      65.366  23.998   5.875  1.00  0.00    -0.054 C 
ATOM     14  C   UNL     1      65.497  25.270   5.474  1.00  0.00    -0.100 C 
ENDBRANCH  12  13
ENDBRANCH  11  12
ENDBRANCH   9  11
ENDBRANCH   3   9
BRANCH   6  15
ATOM     15  C   UNL     1      67.913  22.582  13.053  1.00  0.00     0.113 C 
ATOM     16  C   UNL     1      68.514  23.983  13.132  1.00  0.00    -0.027 C 
BRANCH  15  17
ATOM     17  O   UNL     1      68.171  21.914  14.311  1.00  0.00    -0.462 OA
BRANCH  17  18
ATOM     18  C   UNL     1      68.889  20.773  14.439  1.00  0.00     0.302 C 
ATOM     19  O   UNL     1      69.092  20.052  13.466  1.00  0.00    -0.253 OA
ATOM     20  C   UNL     1      69.437  20.440  15.793  1.00  0.00     0.034 C 
ENDBRANCH  17  18
ENDBRANCH  15  17
ENDBRANCH   6  15
TORSDOF 7
ENDMDL
MODEL 2
REMARK VINA RESULT:    -5.411      3.347      4.821
REMARK INTER + INTRA:          -7.897
REMARK INTER:                  -7.719
REMARK INTRA:                  -0.179
REMARK UNBOUND:                -0.271
REMARK SMILES C=CCOC(=O)C1=CS[C@H]2[C@@H]([C@@H](C)OC(C)=O)C(=O)N12
REMARK SMILES IDX 9 1 8 2 7 3 20 4 10 5 11 6 18 7 19 8 5 9 6 10 4 11 3 12 2 13
REMARK SMILES IDX 1 14 12 15 13 16 14 17 15 18 17 19 16 20
REMARK H PARENT
REMARK Flexibility Score: inf
ROOT
ATOM      1  S   UNL     1      65.259  21.247   6.571  1.00  0.00    -0.105 SA
ATOM      2  C   UNL     1      64.552  22.406   5.458  1.00  0.00     0.004 C 
ATOM      3  C   UNL     1      63.286  22.758   5.702  1.00  0.00     0.137 C 
ATOM      4  N   UNL     1      62.688  22.111   6.753  1.00  0.00    -0.291 N 
ATOM      5  C   UNL     1      63.527  21.000   7.239  1.00  0.00     0.102 C 
ATOM      6  C   UNL     1      63.233  21.490   8.680  1.00  0.00     0.106 C 
ATOM      7  C   UNL     1      62.641  22.724   7.981  1.00  0.00     0.238 C 
ATOM      8  O   UNL     1      62.355  23.851   8.313  1.00  0.00    -0.274 OA
ENDROOT
BRANCH   3   9
ATOM      9  C   UNL     1      62.520  23.774   4.929  1.00  0.00     0.355 C 
ATOM     10  O   UNL     1      61.300  23.831   4.905  1.00  0.00    -0.244 OA
BRANCH   9  11
ATOM     11  O   UNL     1      63.365  24.600   4.262  1.00  0.00    -0.457 OA
BRANCH  11  12
ATOM     12  C   UNL     1      63.035  24.759   2.881  1.00  0.00     0.110 C 
BRANCH  12  13
ATOM     13  C   UNL     1      64.327  24.827   2.125  1.00  0.00    -0.054 C 
ATOM     14  C   UNL     1      65.281  25.746   2.328  1.00  0.00    -0.100 C 
ENDBRANCH  12  13
ENDBRANCH  11  12
ENDBRANCH   9  11
ENDBRANCH   3   9
BRANCH   6  15
ATOM     15  C   UNL     1      64.360  21.765   9.668  1.00  0.00     0.113 C 
ATOM     16  C   UNL     1      63.791  22.354  10.957  1.00  0.00    -0.027 C 
BRANCH  15  17
ATOM     17  O   UNL     1      64.958  20.486   9.987  1.00  0.00    -0.462 OA
BRANCH  17  18
ATOM     18  C   UNL     1      66.261  20.310  10.310  1.00  0.00     0.302 C 
ATOM     19  O   UNL     1      67.089  20.055   9.441  1.00  0.00    -0.253 OA
ATOM     20  C   UNL     1      66.651  20.457  11.750  1.00  0.00     0.034 C 
ENDBRANCH  17  18
ENDBRANCH  15  17
ENDBRANCH   6  15
TORSDOF 7
ENDMDL
MODEL 3
REMARK VINA RESULT:    -5.357      1.834      7.123
REMARK INTER + INTRA:          -7.820
REMARK INTER:                  -8.303
REMARK INTRA:                   0.483
REMARK UNBOUND:                -0.271
REMARK SMILES C=CCOC(=O)C1=CS[C@H]2[C@@H]([C@@H](C)OC(C)=O)C(=O)N12
REMARK SMILES IDX 9 1 8 2 7 3 20 4 10 5 11 6 18 7 19 8 5 9 6 10 4 11 3 12 2 13
REMARK SMILES IDX 1 14 12 15 13 16 14 17 15 18 17 19 16 20
REMARK H PARENT
REMARK Flexibility Score: inf
ROOT
ATOM      1  S   UNL     1      66.832  24.180  11.691  1.00  0.00    -0.105 SA
ATOM      2  C   UNL     1      68.015  23.325  12.667  1.00  0.00     0.004 C 
ATOM      3  C   UNL     1      67.595  22.196  13.245  1.00  0.00     0.137 C 
ATOM      4  N   UNL     1      66.270  21.894  13.050  1.00  0.00    -0.291 N 
ATOM      5  C   UNL     1      65.557  23.020  12.420  1.00  0.00     0.102 C 
ATOM      6  C   UNL     1      64.894  21.989  11.472  1.00  0.00     0.106 C 
ATOM      7  C   UNL     1      65.922  21.009  12.060  1.00  0.00     0.238 C 
ATOM      8  O   UNL     1      66.372  19.934  11.740  1.00  0.00    -0.274 OA
ENDROOT
BRANCH   3   9
ATOM      9  C   UNL     1      68.448  21.283  14.053  1.00  0.00     0.355 C 
ATOM     10  O   UNL     1      68.684  21.447  15.241  1.00  0.00    -0.244 OA
BRANCH   9  11
ATOM     11  O   UNL     1      68.922  20.271  13.284  1.00  0.00    -0.457 OA
BRANCH  11  12
ATOM     12  C   UNL     1      69.826  19.405  13.974  1.00  0.00     0.110 C 
BRANCH  12  13
ATOM     13  C   UNL     1      69.182  18.054  14.033  1.00  0.00    -0.054 C 
ATOM     14  C   UNL     1      69.133  17.280  15.125  1.00  0.00    -0.100 C 
ENDBRANCH  12  13
ENDBRANCH  11  12
ENDBRANCH   9  11
ENDBRANCH   3   9
BRANCH   6  15
ATOM     15  C   UNL     1      64.935  22.164   9.959  1.00  0.00     0.113 C 
ATOM     16  C   UNL     1      64.682  20.824   9.271  1.00  0.00    -0.027 C 
BRANCH  15  17
ATOM     17  O   UNL     1      63.850  23.056   9.611  1.00  0.00    -0.462 OA
BRANCH  17  18
ATOM     18  C   UNL     1      62.996  22.856   8.579  1.00  0.00     0.302 C 
ATOM     19  O   UNL     1      61.853  22.461   8.785  1.00  0.00    -0.253 OA
ATOM     20  C   UNL     1      63.488  23.155   7.195  1.00  0.00     0.034 C 
ENDBRANCH  17  18
ENDBRANCH  15  17
ENDBRANCH   6  15
TORSDOF 7
ENDMDL
MODEL 4
REMARK VINA RESULT:    -5.319      2.374      7.369
REMARK INTER + INTRA:          -7.768
REMARK INTER:                  -7.873
REMARK INTRA:                   0.105
REMARK UNBOUND:                -0.271
REMARK SMILES C=CCOC(=O)C1=CS[C@H]2[C@@H]([C@@H](C)OC(C)=O)C(=O)N12
REMARK SMILES IDX 9 1 8 2 7 3 20 4 10 5 11 6 18 7 19 8 5 9 6 10 4 11 3 12 2 13
REMARK SMILES IDX 1 14 12 15 13 16 14 17 15 18 17 19 16 20
REMARK H PARENT
REMARK Flexibility Score: inf
ROOT
ATOM      1  S   UNL     1      66.752  19.555  10.727  1.00  0.00    -0.105 SA
ATOM      2  C   UNL     1      67.770  19.134  12.095  1.00  0.00     0.004 C 
ATOM      3  C   UNL     1      68.285  20.159  12.782  1.00  0.00     0.137 C 
ATOM      4  N   UNL     1      68.000  21.404  12.281  1.00  0.00    -0.291 N 
ATOM      5  C   UNL     1      67.364  21.310  10.954  1.00  0.00     0.102 C 
ATOM      6  C   UNL     1      66.344  22.373  11.435  1.00  0.00     0.106 C 
ATOM      7  C   UNL     1      66.962  22.124  12.820  1.00  0.00     0.238 C 
ATOM      8  O   UNL     1      66.636  22.341  13.963  1.00  0.00    -0.274 OA
ENDROOT
BRANCH   3   9
ATOM      9  C   UNL     1      69.113  20.030  14.011  1.00  0.00     0.355 C 
ATOM     10  O   UNL     1      69.413  20.971  14.731  1.00  0.00    -0.244 OA
BRANCH   9  11
ATOM     11  O   UNL     1      69.486  18.739  14.200  1.00  0.00    -0.457 OA
BRANCH  11  12
ATOM     12  C   UNL     1      70.502  18.578  15.192  1.00  0.00     0.110 C 
BRANCH  12  13
ATOM     13  C   UNL     1      69.857  17.934  16.381  1.00  0.00    -0.054 C 
ATOM     14  C   UNL     1      70.518  17.293  17.354  1.00  0.00    -0.100 C 
ENDBRANCH  12  13
ENDBRANCH  11  12
ENDBRANCH   9  11
ENDBRANCH   3   9
BRANCH   6  15
ATOM     15  C   UNL     1      64.844  22.136  11.326  1.00  0.00     0.113 C 
ATOM     16  C   UNL     1      64.097  23.079  12.267  1.00  0.00    -0.027 C 
BRANCH  15  17
ATOM     17  O   UNL     1      64.464  22.467   9.969  1.00  0.00    -0.462 OA
BRANCH  17  18
ATOM     18  C   UNL     1      63.486  21.841   9.273  1.00  0.00     0.302 C 
ATOM     19  O   UNL     1      62.316  22.187   9.395  1.00  0.00    -0.253 OA
ATOM     20  C   UNL     1      63.888  20.736   8.342  1.00  0.00     0.034 C 
ENDBRANCH  17  18
ENDBRANCH  15  17
ENDBRANCH   6  15
TORSDOF 7
ENDMDL
MODEL 5
REMARK VINA RESULT:    -5.272      2.131      2.632
REMARK INTER + INTRA:          -7.701
REMARK INTER:                  -7.378
REMARK INTRA:                  -0.324
REMARK UNBOUND:                -0.271
REMARK SMILES C=CCOC(=O)C1=CS[C@H]2[C@@H]([C@@H](C)OC(C)=O)C(=O)N12
REMARK SMILES IDX 9 1 8 2 7 3 20 4 10 5 11 6 18 7 19 8 5 9 6 10 4 11 3 12 2 13
REMARK SMILES IDX 1 14 12 15 13 16 14 17 15 18 17 19 16 20
REMARK H PARENT
REMARK Flexibility Score: inf
ROOT
ATOM      1  S   UNL     1      67.275  20.228  11.609  1.00  0.00    -0.105 SA
ATOM      2  C   UNL     1      66.833  19.922   9.938  1.00  0.00     0.004 C 
ATOM      3  C   UNL     1      65.708  20.506   9.511  1.00  0.00     0.137 C 
ATOM      4  N   UNL     1      65.016  21.213  10.462  1.00  0.00    -0.291 N 
ATOM      5  C   UNL     1      65.570  20.977  11.808  1.00  0.00     0.102 C 
ATOM      6  C   UNL     1      65.477  22.504  12.047  1.00  0.00     0.106 C 
ATOM      7  C   UNL     1      65.183  22.574  10.541  1.00  0.00     0.238 C 
ATOM      8  O   UNL     1      65.205  23.437   9.695  1.00  0.00    -0.274 OA
ENDROOT
BRANCH   3   9
ATOM      9  C   UNL     1      65.188  20.438   8.119  1.00  0.00     0.355 C 
ATOM     10  O   UNL     1      65.843  20.742   7.133  1.00  0.00    -0.244 OA
BRANCH   9  11
ATOM     11  O   UNL     1      63.902  20.006   8.113  1.00  0.00    -0.457 OA
BRANCH  11  12
ATOM     12  C   UNL     1      63.127  20.537   7.036  1.00  0.00     0.110 C 
BRANCH  12  13
ATOM     13  C   UNL     1      62.501  21.806   7.529  1.00  0.00    -0.054 C 
ATOM     14  C   UNL     1      62.032  21.993   8.769  1.00  0.00    -0.100 C 
ENDBRANCH  12  13
ENDBRANCH  11  12
ENDBRANCH   9  11
ENDBRANCH   3   9
BRANCH   6  15
ATOM     15  C   UNL     1      66.681  23.306  12.526  1.00  0.00     0.113 C 
ATOM     16  C   UNL     1      66.284  24.763  12.747  1.00  0.00    -0.027 C 
BRANCH  15  17
ATOM     17  O   UNL     1      67.073  22.751  13.804  1.00  0.00    -0.462 OA
BRANCH  17  18
ATOM     18  C   UNL     1      68.356  22.569  14.199  1.00  0.00     0.302 C 
ATOM     19  O   UNL     1      69.205  23.424  13.969  1.00  0.00    -0.253 OA
ATOM     20  C   UNL     1      68.688  21.308  14.938  1.00  0.00     0.034 C 
ENDBRANCH  17  18
ENDBRANCH  15  17
ENDBRANCH   6  15
TORSDOF 7
ENDMDL
MODEL 6
REMARK VINA RESULT:    -5.240      1.738      2.037
REMARK INTER + INTRA:          -7.656
REMARK INTER:                  -8.018
REMARK INTRA:                   0.362
REMARK UNBOUND:                -0.271
REMARK SMILES C=CCOC(=O)C1=CS[C@H]2[C@@H]([C@@H](C)OC(C)=O)C(=O)N12
REMARK SMILES IDX 9 1 8 2 7 3 20 4 10 5 11 6 18 7 19 8 5 9 6 10 4 11 3 12 2 13
REMARK SMILES IDX 1 14 12 15 13 16 14 17 15 18 17 19 16 20
REMARK H PARENT
REMARK Flexibility Score: inf
ROOT
ATOM      1  S   UNL     1      66.835  20.082  11.450  1.00  0.00    -0.105 SA
ATOM      2  C   UNL     1      65.858  20.715  10.135  1.00  0.00     0.004 C 
ATOM      3  C   UNL     1      65.091  21.770  10.429  1.00  0.00     0.137 C 
ATOM      4  N   UNL     1      65.122  22.173  11.740  1.00  0.00    -0.291 N 
ATOM      5  C   UNL     1      65.838  21.194  12.579  1.00  0.00     0.102 C 
ATOM      6  C   UNL     1      66.568  22.390  13.241  1.00  0.00     0.106 C 
ATOM      7  C   UNL     1      65.942  23.212  12.104  1.00  0.00     0.238 C 
ATOM      8  O   UNL     1      66.146  24.295  11.607  1.00  0.00    -0.274 OA
ENDROOT
BRANCH   3   9
ATOM      9  C   UNL     1      64.241  22.503   9.452  1.00  0.00     0.355 C 
ATOM     10  O   UNL     1      64.672  23.336   8.668  1.00  0.00    -0.244 OA
BRANCH   9  11
ATOM     11  O   UNL     1      62.945  22.123   9.569  1.00  0.00    -0.457 OA
BRANCH  11  12
ATOM     12  C   UNL     1      62.219  22.179   8.339  1.00  0.00     0.110 C 
BRANCH  12  13
ATOM     13  C   UNL     1      62.397  20.853   7.664  1.00  0.00    -0.054 C 
ATOM     14  C   UNL     1      63.042  20.668   6.504  1.00  0.00    -0.100 C 
ENDBRANCH  12  13
ENDBRANCH  11  12
ENDBRANCH   9  11
ENDBRANCH   3   9
BRANCH   6  15
ATOM     15  C   UNL     1      68.088  22.436  13.334  1.00  0.00     0.113 C 
ATOM     16  C   UNL     1      68.575  23.877  13.192  1.00  0.00    -0.027 C 
BRANCH  15  17
ATOM     17  O   UNL     1      68.441  21.975  14.660  1.00  0.00    -0.462 OA
BRANCH  17  18
ATOM     18  C   UNL     1      68.929  20.742  14.937  1.00  0.00     0.302 C 
ATOM     19  O   UNL     1      69.029  20.359  16.098  1.00  0.00    -0.253 OA
ATOM     20  C   UNL     1      69.317  19.868  13.782  1.00  0.00     0.034 C 
ENDBRANCH  17  18
ENDBRANCH  15  17
ENDBRANCH   6  15
TORSDOF 7
ENDMDL
MODEL 7
REMARK VINA RESULT:    -5.201      3.699      5.430
REMARK INTER + INTRA:          -7.601
REMARK INTER:                  -7.508
REMARK INTRA:                  -0.093
REMARK UNBOUND:                -0.271
REMARK SMILES C=CCOC(=O)C1=CS[C@H]2[C@@H]([C@@H](C)OC(C)=O)C(=O)N12
REMARK SMILES IDX 9 1 8 2 7 3 20 4 10 5 11 6 18 7 19 8 5 9 6 10 4 11 3 12 2 13
REMARK SMILES IDX 1 14 12 15 13 16 14 17 15 18 17 19 16 20
REMARK H PARENT
REMARK Flexibility Score: inf
ROOT
ATOM      1  S   UNL     1      65.267  21.231   6.356  1.00  0.00    -0.105 SA
ATOM      2  C   UNL     1      64.517  22.383   5.263  1.00  0.00     0.004 C 
ATOM      3  C   UNL     1      63.238  22.681   5.511  1.00  0.00     0.137 C 
ATOM      4  N   UNL     1      62.664  21.992   6.550  1.00  0.00    -0.291 N 
ATOM      5  C   UNL     1      63.546  20.906   7.017  1.00  0.00     0.102 C 
ATOM      6  C   UNL     1      63.232  21.358   8.466  1.00  0.00     0.106 C 
ATOM      7  C   UNL     1      62.593  22.581   7.788  1.00  0.00     0.238 C 
ATOM      8  O   UNL     1      62.263  23.689   8.140  1.00  0.00    -0.274 OA
ENDROOT
BRANCH   3   9
ATOM      9  C   UNL     1      62.434  23.679   4.756  1.00  0.00     0.355 C 
ATOM     10  O   UNL     1      62.921  24.558   4.060  1.00  0.00    -0.244 OA
BRANCH   9  11
ATOM     11  O   UNL     1      61.109  23.477   4.962  1.00  0.00    -0.457 OA
BRANCH  11  12
ATOM     12  C   UNL     1      60.375  23.231   3.761  1.00  0.00     0.110 C 
BRANCH  12  13
ATOM     13  C   UNL     1      59.139  24.075   3.819  1.00  0.00    -0.054 C 
ATOM     14  C   UNL     1      57.888  23.596   3.833  1.00  0.00    -0.100 C 
ENDBRANCH  12  13
ENDBRANCH  11  12
ENDBRANCH   9  11
ENDBRANCH   3   9
BRANCH   6  15
ATOM     15  C   UNL     1      64.346  21.658   9.460  1.00  0.00     0.113 C 
ATOM     16  C   UNL     1      63.762  22.283  10.726  1.00  0.00    -0.027 C 
BRANCH  15  17
ATOM     17  O   UNL     1      64.938  20.388   9.822  1.00  0.00    -0.462 OA
BRANCH  17  18
ATOM     18  C   UNL     1      66.234  20.222  10.179  1.00  0.00     0.302 C 
ATOM     19  O   UNL     1      67.101  20.069   9.323  1.00  0.00    -0.253 OA
ATOM     20  C   UNL     1      66.567  20.252  11.640  1.00  0.00     0.034 C 
ENDBRANCH  17  18
ENDBRANCH  15  17
ENDBRANCH   6  15
TORSDOF 7
ENDMDL
MODEL 8
REMARK VINA RESULT:    -5.192      3.663      6.026
REMARK INTER + INTRA:          -7.588
REMARK INTER:                  -7.301
REMARK INTRA:                  -0.287
REMARK UNBOUND:                -0.271
REMARK SMILES C=CCOC(=O)C1=CS[C@H]2[C@@H]([C@@H](C)OC(C)=O)C(=O)N12
REMARK SMILES IDX 9 1 8 2 7 3 20 4 10 5 11 6 18 7 19 8 5 9 6 10 4 11 3 12 2 13
REMARK SMILES IDX 1 14 12 15 13 16 14 17 15 18 17 19 16 20
REMARK H PARENT
REMARK Flexibility Score: inf
ROOT
ATOM      1  S   UNL     1      69.463  19.311  16.151  1.00  0.00    -0.105 SA
ATOM      2  C   UNL     1      68.772  20.876  15.757  1.00  0.00     0.004 C 
ATOM      3  C   UNL     1      68.793  21.219  14.465  1.00  0.00     0.137 C 
ATOM      4  N   UNL     1      69.415  20.325  13.630  1.00  0.00    -0.291 N 
ATOM      5  C   UNL     1      70.119  19.283  14.398  1.00  0.00     0.102 C 
ATOM      6  C   UNL     1      69.518  18.243  13.419  1.00  0.00     0.106 C 
ATOM      7  C   UNL     1      68.656  19.418  12.932  1.00  0.00     0.238 C 
ATOM      8  O   UNL     1      67.635  19.535  12.296  1.00  0.00    -0.274 OA
ENDROOT
BRANCH   3   9
ATOM      9  C   UNL     1      68.201  22.464  13.904  1.00  0.00     0.355 C 
ATOM     10  O   UNL     1      68.862  23.415  13.513  1.00  0.00    -0.244 OA
BRANCH   9  11
ATOM     11  O   UNL     1      66.847  22.388  13.904  1.00  0.00    -0.457 OA
BRANCH  11  12
ATOM     12  C   UNL     1      66.237  23.065  12.803  1.00  0.00     0.110 C 
BRANCH  12  13
ATOM     13  C   UNL     1      65.201  22.141  12.238  1.00  0.00    -0.054 C 
ATOM     14  C   UNL     1      64.428  22.419  11.180  1.00  0.00    -0.100 C 
ENDBRANCH  12  13
ENDBRANCH  11  12
ENDBRANCH   9  11
ENDBRANCH   3   9
BRANCH   6  15
ATOM     15  C   UNL     1      68.755  17.026  13.927  1.00  0.00     0.113 C 
ATOM     16  C   UNL     1      68.202  16.228  12.748  1.00  0.00    -0.027 C 
BRANCH  15  17
ATOM     17  O   UNL     1      69.712  16.191  14.621  1.00  0.00    -0.462 OA
BRANCH  17  18
ATOM     18  C   UNL     1      69.494  15.620  15.830  1.00  0.00     0.302 C 
ATOM     19  O   UNL     1      68.390  15.168  16.115  1.00  0.00    -0.253 OA
ATOM     20  C   UNL     1      70.647  15.544  16.785  1.00  0.00     0.034 C 
ENDBRANCH  17  18
ENDBRANCH  15  17
ENDBRANCH   6  15
TORSDOF 7
ENDMDL
MODEL 9
REMARK VINA RESULT:    -5.174      3.719      8.069
REMARK INTER + INTRA:          -7.563
REMARK INTER:                  -7.701
REMARK INTRA:                   0.139
REMARK UNBOUND:                -0.271
REMARK SMILES C=CCOC(=O)C1=CS[C@H]2[C@@H]([C@@H](C)OC(C)=O)C(=O)N12
REMARK SMILES IDX 9 1 8 2 7 3 20 4 10 5 11 6 18 7 19 8 5 9 6 10 4 11 3 12 2 13
REMARK SMILES IDX 1 14 12 15 13 16 14 17 15 18 17 19 16 20
REMARK H PARENT
REMARK Flexibility Score: inf
ROOT
ATOM      1  S   UNL     1      65.678  21.708   5.600  1.00  0.00    -0.105 SA
ATOM      2  C   UNL     1      64.695  21.273   6.988  1.00  0.00     0.004 C 
ATOM      3  C   UNL     1      63.902  22.235   7.472  1.00  0.00     0.137 C 
ATOM      4  N   UNL     1      64.015  23.455   6.854  1.00  0.00    -0.291 N 
ATOM      5  C   UNL     1      65.164  23.478   5.931  1.00  0.00     0.102 C 
ATOM      6  C   UNL     1      64.239  24.166   4.895  1.00  0.00     0.106 C 
ATOM      7  C   UNL     1      63.115  23.800   5.877  1.00  0.00     0.238 C 
ATOM      8  O   UNL     1      61.911  23.711   5.817  1.00  0.00    -0.274 OA
ENDROOT
BRANCH   3   9
ATOM      9  C   UNL     1      62.940  22.062   8.593  1.00  0.00     0.355 C 
ATOM     10  O   UNL     1      61.940  21.362   8.530  1.00  0.00    -0.244 OA
BRANCH   9  11
ATOM     11  O   UNL     1      63.327  22.792   9.669  1.00  0.00    -0.457 OA
BRANCH  11  12
ATOM     12  C   UNL     1      64.128  22.059  10.598  1.00  0.00     0.110 C 
BRANCH  12  13
ATOM     13  C   UNL     1      64.154  22.845  11.873  1.00  0.00    -0.054 C 
ATOM     14  C   UNL     1      65.263  23.319  12.455  1.00  0.00    -0.100 C 
ENDBRANCH  12  13
ENDBRANCH  11  12
ENDBRANCH   9  11
ENDBRANCH   3   9
BRANCH   6  15
ATOM     15  C   UNL     1      64.089  23.619   3.482  1.00  0.00     0.113 C 
ATOM     16  C   UNL     1      63.046  24.430   2.717  1.00  0.00    -0.027 C 
BRANCH  15  17
ATOM     17  O   UNL     1      65.366  23.801   2.824  1.00  0.00    -0.462 OA
BRANCH  17  18
ATOM     18  C   UNL     1      66.045  24.972   2.781  1.00  0.00     0.302 C 
ATOM     19  O   UNL     1      65.555  25.956   2.236  1.00  0.00    -0.253 OA
ATOM     20  C   UNL     1      67.391  25.024   3.437  1.00  0.00     0.034 C 
ENDBRANCH  17  18
ENDBRANCH  15  17
ENDBRANCH   6  15
TORSDOF 7
ENDMDL
MODEL 10
REMARK VINA RESULT:    -5.136      9.226     12.429
REMARK INTER + INTRA:          -7.509
REMARK INTER:                  -7.026
REMARK INTRA:                  -0.484
REMARK UNBOUND:                -0.271
REMARK SMILES C=CCOC(=O)C1=CS[C@H]2[C@@H]([C@@H](C)OC(C)=O)C(=O)N12
REMARK SMILES IDX 9 1 8 2 7 3 20 4 10 5 11 6 18 7 19 8 5 9 6 10 4 11 3 12 2 13
REMARK SMILES IDX 1 14 12 15 13 16 14 17 15 18 17 19 16 20
REMARK H PARENT
REMARK Flexibility Score: inf
ROOT
ATOM      1  S   UNL     1      57.373  22.975   3.795  1.00  0.00    -0.105 SA
ATOM      2  C   UNL     1      56.197  23.105   2.498  1.00  0.00     0.004 C 
ATOM      3  C   UNL     1      56.188  24.261   1.826  1.00  0.00     0.137 C 
ATOM      4  N   UNL     1      57.059  25.216   2.289  1.00  0.00    -0.291 N 
ATOM      5  C   UNL     1      57.653  24.813   3.577  1.00  0.00     0.102 C 
ATOM      6  C   UNL     1      59.023  25.273   3.018  1.00  0.00     0.106 C 
ATOM      7  C   UNL     1      58.279  25.365   1.677  1.00  0.00     0.238 C 
ATOM      8  O   UNL     1      58.600  25.418   0.513  1.00  0.00    -0.274 OA
ENDROOT
BRANCH   3   9
ATOM      9  C   UNL     1      55.325  24.557   0.651  1.00  0.00     0.355 C 
ATOM     10  O   UNL     1      55.231  23.827  -0.324  1.00  0.00    -0.244 OA
BRANCH   9  11
ATOM     11  O   UNL     1      54.683  25.740   0.820  1.00  0.00    -0.457 OA
BRANCH  11  12
ATOM     12  C   UNL     1      54.603  26.521  -0.374  1.00  0.00     0.110 C 
BRANCH  12  13
ATOM     13  C   UNL     1      55.810  27.408  -0.402  1.00  0.00    -0.054 C 
ATOM     14  C   UNL     1      56.053  28.393   0.474  1.00  0.00    -0.100 C 
ENDBRANCH  12  13
ENDBRANCH  11  12
ENDBRANCH   9  11
ENDBRANCH   3   9
BRANCH   6  15
ATOM     15  C   UNL     1      60.236  24.352   3.041  1.00  0.00     0.113 C 
ATOM     16  C   UNL     1      61.417  25.026   2.345  1.00  0.00    -0.027 C 
BRANCH  15  17
ATOM     17  O   UNL     1      60.590  24.158   4.431  1.00  0.00    -0.462 OA
BRANCH  17  18
ATOM     18  C   UNL     1      61.538  23.295   4.867  1.00  0.00     0.302 C 
ATOM     19  O   UNL     1      62.278  23.601   5.797  1.00  0.00    -0.253 OA
ATOM     20  C   UNL     1      61.632  21.960   4.193  1.00  0.00     0.034 C 
ENDBRANCH  17  18
ENDBRANCH  15  17
ENDBRANCH   6  15
TORSDOF 7
ENDMDL
MODEL 11
REMARK VINA RESULT:    -5.127      3.456      5.741
REMARK INTER + INTRA:          -7.496
REMARK INTER:                  -7.220
REMARK INTRA:                  -0.276
REMARK UNBOUND:                -0.271
REMARK SMILES C=CCOC(=O)C1=CS[C@H]2[C@@H]([C@@H](C)OC(C)=O)C(=O)N12
REMARK SMILES IDX 9 1 8 2 7 3 20 4 10 5 11 6 18 7 19 8 5 9 6 10 4 11 3 12 2 13
REMARK SMILES IDX 1 14 12 15 13 16 14 17 15 18 17 19 16 20
REMARK H PARENT
REMARK Flexibility Score: inf
ROOT
ATOM      1  S   UNL     1      69.493  20.087  15.567  1.00  0.00    -0.105 SA
ATOM      2  C   UNL     1      68.456  21.103  14.581  1.00  0.00     0.004 C 
ATOM      3  C   UNL     1      68.324  20.741  13.300  1.00  0.00     0.137 C 
ATOM      4  N   UNL     1      69.074  19.658  12.916  1.00  0.00    -0.291 N 
ATOM      5  C   UNL     1      70.034  19.277  13.968  1.00  0.00     0.102 C 
ATOM      6  C   UNL     1      69.617  17.804  13.729  1.00  0.00     0.106 C 
ATOM      7  C   UNL     1      68.492  18.416  12.879  1.00  0.00     0.238 C 
ATOM      8  O   UNL     1      67.433  18.030  12.441  1.00  0.00    -0.274 OA
ENDROOT
BRANCH   3   9
ATOM      9  C   UNL     1      67.442  21.416  12.310  1.00  0.00     0.355 C 
ATOM     10  O   UNL     1      67.744  21.591  11.139  1.00  0.00    -0.244 OA
BRANCH   9  11
ATOM     11  O   UNL     1      66.284  21.810  12.896  1.00  0.00    -0.457 OA
BRANCH  11  12
ATOM     12  C   UNL     1      65.751  23.019  12.353  1.00  0.00     0.110 C 
BRANCH  12  13
ATOM     13  C   UNL     1      64.331  22.740  11.964  1.00  0.00    -0.054 C 
ATOM     14  C   UNL     1      63.952  22.210  10.794  1.00  0.00    -0.100 C 
ENDBRANCH  12  13
ENDBRANCH  11  12
ENDBRANCH   9  11
ENDBRANCH   3   9
BRANCH   6  15
ATOM     15  C   UNL     1      69.169  16.911  14.879  1.00  0.00     0.113 C 
ATOM     16  C   UNL     1      68.675  15.571  14.337  1.00  0.00    -0.027 C 
BRANCH  15  17
ATOM     17  O   UNL     1      70.338  16.659  15.694  1.00  0.00    -0.462 OA
BRANCH  17  18
ATOM     18  C   UNL     1      70.348  16.686  17.048  1.00  0.00     0.302 C 
ATOM     19  O   UNL     1      69.499  16.074  17.689  1.00  0.00    -0.253 OA
ATOM     20  C   UNL     1      71.435  17.465  17.724  1.00  0.00     0.034 C 
ENDBRANCH  17  18
ENDBRANCH  15  17
ENDBRANCH   6  15
TORSDOF 7
ENDMDL
MODEL 12
REMARK VINA RESULT:    -5.026     14.477     16.195
REMARK INTER + INTRA:          -7.354
REMARK INTER:                  -7.315
REMARK INTRA:                  -0.039
REMARK UNBOUND:                -0.271
REMARK SMILES C=CCOC(=O)C1=CS[C@H]2[C@@H]([C@@H](C)OC(C)=O)C(=O)N12
REMARK SMILES IDX 9 1 8 2 7 3 20 4 10 5 11 6 18 7 19 8 5 9 6 10 4 11 3 12 2 13
REMARK SMILES IDX 1 14 12 15 13 16 14 17 15 18 17 19 16 20
REMARK H PARENT
REMARK Flexibility Score: inf
ROOT
ATOM      1  S   UNL     1      58.880  27.467  -4.004  1.00  0.00    -0.105 SA
ATOM      2  C   UNL     1      60.563  27.077  -4.317  1.00  0.00     0.004 C 
ATOM      3  C   UNL     1      61.418  27.319  -3.319  1.00  0.00     0.137 C 
ATOM      4  N   UNL     1      60.870  27.905  -2.205  1.00  0.00    -0.291 N 
ATOM      5  C   UNL     1      59.484  28.337  -2.460  1.00  0.00     0.102 C 
ATOM      6  C   UNL     1      59.105  27.722  -1.090  1.00  0.00     0.106 C 
ATOM      7  C   UNL     1      60.518  27.118  -1.137  1.00  0.00     0.238 C 
ATOM      8  O   UNL     1      61.092  26.219  -0.569  1.00  0.00    -0.274 OA
ENDROOT
BRANCH   3   9
ATOM      9  C   UNL     1      62.871  27.000  -3.345  1.00  0.00     0.355 C 
ATOM     10  O   UNL     1      63.321  25.906  -3.652  1.00  0.00    -0.244 OA
BRANCH   9  11
ATOM     11  O   UNL     1      63.602  28.081  -2.974  1.00  0.00    -0.457 OA
BRANCH  11  12
ATOM     12  C   UNL     1      64.353  28.657  -4.044  1.00  0.00     0.110 C 
BRANCH  12  13
ATOM     13  C   UNL     1      63.986  30.108  -4.108  1.00  0.00    -0.054 C 
ATOM     14  C   UNL     1      62.955  30.663  -3.458  1.00  0.00    -0.100 C 
ENDBRANCH  12  13
ENDBRANCH  11  12
ENDBRANCH   9  11
ENDBRANCH   3   9
BRANCH   6  15
ATOM     15  C   UNL     1      57.961  26.725  -0.959  1.00  0.00     0.113 C 
ATOM     16  C   UNL     1      57.913  26.170   0.463  1.00  0.00    -0.027 C 
BRANCH  15  17
ATOM     17  O   UNL     1      56.736  27.459  -1.194  1.00  0.00    -0.462 OA
BRANCH  17  18
ATOM     18  C   UNL     1      55.926  27.928  -0.215  1.00  0.00     0.302 C 
ATOM     19  O   UNL     1      54.982  27.255   0.187  1.00  0.00    -0.253 OA
ATOM     20  C   UNL     1      56.236  29.275   0.365  1.00  0.00     0.034 C 
ENDBRANCH  17  18
ENDBRANCH  15  17
ENDBRANCH   6  15
TORSDOF 7
ENDMDL
MODEL 13
REMARK VINA RESULT:    -4.985      2.012      2.926
REMARK INTER + INTRA:          -7.296
REMARK INTER:                  -7.063
REMARK INTRA:                  -0.233
REMARK UNBOUND:                -0.271
REMARK SMILES C=CCOC(=O)C1=CS[C@H]2[C@@H]([C@@H](C)OC(C)=O)C(=O)N12
REMARK SMILES IDX 9 1 8 2 7 3 20 4 10 5 11 6 18 7 19 8 5 9 6 10 4 11 3 12 2 13
REMARK SMILES IDX 1 14 12 15 13 16 14 17 15 18 17 19 16 20
REMARK H PARENT
REMARK Flexibility Score: inf
ROOT
ATOM      1  S   UNL     1      67.170  22.578  13.533  1.00  0.00    -0.105 SA
ATOM      2  C   UNL     1      65.686  22.950  12.671  1.00  0.00     0.004 C 
ATOM      3  C   UNL     1      65.603  22.494  11.417  1.00  0.00     0.137 C 
ATOM      4  N   UNL     1      66.723  21.851  10.951  1.00  0.00    -0.291 N 
ATOM      5  C   UNL     1      67.853  22.011  11.884  1.00  0.00     0.102 C 
ATOM      6  C   UNL     1      68.137  20.499  11.703  1.00  0.00     0.106 C 
ATOM      7  C   UNL     1      66.775  20.480  10.990  1.00  0.00     0.238 C 
ATOM      8  O   UNL     1      65.973  19.630  10.682  1.00  0.00    -0.274 OA
ENDROOT
BRANCH   3   9
ATOM      9  C   UNL     1      64.413  22.634  10.536  1.00  0.00     0.355 C 
ATOM     10  O   UNL     1      63.273  22.363  10.884  1.00  0.00    -0.244 OA
BRANCH   9  11
ATOM     11  O   UNL     1      64.779  23.089   9.311  1.00  0.00    -0.457 OA
BRANCH  11  12
ATOM     12  C   UNL     1      64.291  22.286   8.235  1.00  0.00     0.110 C 
BRANCH  12  13
ATOM     13  C   UNL     1      63.259  23.097   7.514  1.00  0.00    -0.054 C 
ATOM     14  C   UNL     1      62.666  22.733   6.369  1.00  0.00    -0.100 C 
ENDBRANCH  12  13
ENDBRANCH  11  12
ENDBRANCH   9  11
ENDBRANCH   3   9
BRANCH   6  15
ATOM     15  C   UNL     1      68.270  19.569  12.902  1.00  0.00     0.113 C 
ATOM     16  C   UNL     1      68.484  18.133  12.428  1.00  0.00    -0.027 C 
BRANCH  15  17
ATOM     17  O   UNL     1      69.456  19.982  13.622  1.00  0.00    -0.462 OA
BRANCH  17  18
ATOM     18  C   UNL     1      69.707  19.682  14.919  1.00  0.00     0.302 C 
ATOM     19  O   UNL     1      70.482  18.776  15.210  1.00  0.00    -0.253 OA
ATOM     20  C   UNL     1      69.028  20.505  15.971  1.00  0.00     0.034 C 
ENDBRANCH  17  18
ENDBRANCH  15  17
ENDBRANCH   6  15
TORSDOF 7
ENDMDL
MODEL 14
REMARK VINA RESULT:    -4.907     13.382     15.336
REMARK INTER + INTRA:          -7.187
REMARK INTER:                  -6.975
REMARK INTRA:                  -0.211
REMARK UNBOUND:                -0.271
REMARK SMILES C=CCOC(=O)C1=CS[C@H]2[C@@H]([C@@H](C)OC(C)=O)C(=O)N12
REMARK SMILES IDX 9 1 8 2 7 3 20 4 10 5 11 6 18 7 19 8 5 9 6 10 4 11 3 12 2 13
REMARK SMILES IDX 1 14 12 15 13 16 14 17 15 18 17 19 16 20
REMARK H PARENT
REMARK Flexibility Score: inf
ROOT
ATOM      1  S   UNL     1      61.095  25.364  -0.122  1.00  0.00    -0.105 SA
ATOM      2  C   UNL     1      62.414  25.958  -1.117  1.00  0.00     0.004 C 
ATOM      3  C   UNL     1      62.096  26.310  -2.367  1.00  0.00     0.137 C 
ATOM      4  N   UNL     1      60.788  26.095  -2.722  1.00  0.00    -0.291 N 
ATOM      5  C   UNL     1      60.081  25.309  -1.696  1.00  0.00     0.102 C 
ATOM      6  C   UNL     1      58.903  26.306  -1.830  1.00  0.00     0.106 C 
ATOM      7  C   UNL     1      59.895  27.136  -2.661  1.00  0.00     0.238 C 
ATOM      8  O   UNL     1      59.965  28.286  -3.026  1.00  0.00    -0.274 OA
ENDROOT
BRANCH   3   9
ATOM      9  C   UNL     1      63.041  26.902  -3.352  1.00  0.00     0.355 C 
ATOM     10  O   UNL     1      63.458  26.307  -4.335  1.00  0.00    -0.244 OA
BRANCH   9  11
ATOM     11  O   UNL     1      63.370  28.168  -2.994  1.00  0.00    -0.457 OA
BRANCH  11  12
ATOM     12  C   UNL     1      64.190  28.838  -3.954  1.00  0.00     0.110 C 
BRANCH  12  13
ATOM     13  C   UNL     1      63.762  30.274  -3.973  1.00  0.00    -0.054 C 
ATOM     14  C   UNL     1      62.535  30.699  -4.299  1.00  0.00    -0.100 C 
ENDBRANCH  12  13
ENDBRANCH  11  12
ENDBRANCH   9  11
ENDBRANCH   3   9
BRANCH   6  15
ATOM     15  C   UNL     1      58.313  27.003  -0.611  1.00  0.00     0.113 C 
ATOM     16  C   UNL     1      57.377  28.126  -1.054  1.00  0.00    -0.027 C 
BRANCH  15  17
ATOM     17  O   UNL     1      57.524  26.017   0.095  1.00  0.00    -0.462 OA
BRANCH  17  18
ATOM     18  C   UNL     1      57.240  26.067   1.418  1.00  0.00     0.302 C 
ATOM     19  O   UNL     1      56.199  26.584   1.812  1.00  0.00    -0.253 OA
ATOM     20  C   UNL     1      58.224  25.455   2.369  1.00  0.00     0.034 C 
ENDBRANCH  17  18
ENDBRANCH  15  17
ENDBRANCH   6  15
TORSDOF 7
ENDMDL
MODEL 15
REMARK VINA RESULT:    -4.874      3.018      7.475
REMARK INTER + INTRA:          -7.140
REMARK INTER:                  -6.770
REMARK INTRA:                  -0.370
REMARK UNBOUND:                -0.271
REMARK SMILES C=CCOC(=O)C1=CS[C@H]2[C@@H]([C@@H](C)OC(C)=O)C(=O)N12
REMARK SMILES IDX 9 1 8 2 7 3 20 4 10 5 11 6 18 7 19 8 5 9 6 10 4 11 3 12 2 13
REMARK SMILES IDX 1 14 12 15 13 16 14 17 15 18 17 19 16 20
REMARK H PARENT
REMARK Flexibility Score: inf
ROOT
ATOM      1  S   UNL     1      66.774  18.361  11.703  1.00  0.00    -0.105 SA
ATOM      2  C   UNL     1      67.545  17.246  12.820  1.00  0.00     0.004 C 
ATOM      3  C   UNL     1      68.680  17.671  13.385  1.00  0.00     0.137 C 
ATOM      4  N   UNL     1      69.124  18.899  12.960  1.00  0.00    -0.291 N 
ATOM      5  C   UNL     1      68.348  19.372  11.800  1.00  0.00     0.102 C 
ATOM      6  C   UNL     1      68.274  20.756  12.491  1.00  0.00     0.106 C 
ATOM      7  C   UNL     1      68.839  20.012  13.711  1.00  0.00     0.238 C 
ATOM      8  O   UNL     1      68.908  20.228  14.899  1.00  0.00    -0.274 OA
ENDROOT
BRANCH   3   9
ATOM      9  C   UNL     1      69.456  16.920  14.408  1.00  0.00     0.355 C 
ATOM     10  O   UNL     1      68.946  16.314  15.338  1.00  0.00    -0.244 OA
BRANCH   9  11
ATOM     11  O   UNL     1      70.787  17.018  14.162  1.00  0.00    -0.457 OA
BRANCH  11  12
ATOM     12  C   UNL     1      71.560  17.335  15.321  1.00  0.00     0.110 C 
BRANCH  12  13
ATOM     13  C   UNL     1      72.087  18.725  15.131  1.00  0.00    -0.054 C 
ATOM     14  C   UNL     1      72.772  19.140  14.058  1.00  0.00    -0.100 C 
ENDBRANCH  12  13
ENDBRANCH  11  12
ENDBRANCH   9  11
ENDBRANCH   3   9
BRANCH   6  15
ATOM     15  C   UNL     1      66.942  21.464  12.705  1.00  0.00     0.113 C 
ATOM     16  C   UNL     1      67.141  22.695  13.587  1.00  0.00    -0.027 C 
BRANCH  15  17
ATOM     17  O   UNL     1      66.494  21.915  11.404  1.00  0.00    -0.462 OA
BRANCH  17  18
ATOM     18  C   UNL     1      65.567  22.883  11.207  1.00  0.00     0.302 C 
ATOM     19  O   UNL     1      65.894  23.975  10.753  1.00  0.00    -0.253 OA
ATOM     20  C   UNL     1      64.141  22.563  11.540  1.00  0.00     0.034 C 
ENDBRANCH  17  18
ENDBRANCH  15  17
ENDBRANCH   6  15
TORSDOF 7
ENDMDL
MODEL 16
REMARK VINA RESULT:    -4.838      4.911      8.834
REMARK INTER + INTRA:          -7.090
REMARK INTER:                  -6.741
REMARK INTRA:                  -0.349
REMARK UNBOUND:                -0.271
REMARK SMILES C=CCOC(=O)C1=CS[C@H]2[C@@H]([C@@H](C)OC(C)=O)C(=O)N12
REMARK SMILES IDX 9 1 8 2 7 3 20 4 10 5 11 6 18 7 19 8 5 9 6 10 4 11 3 12 2 13
REMARK SMILES IDX 1 14 12 15 13 16 14 17 15 18 17 19 16 20
REMARK H PARENT
REMARK Flexibility Score: inf
ROOT
ATOM      1  S   UNL     1      66.196  25.773   4.734  1.00  0.00    -0.105 SA
ATOM      2  C   UNL     1      65.243  25.076   6.033  1.00  0.00     0.004 C 
ATOM      3  C   UNL     1      64.344  24.154   5.673  1.00  0.00     0.137 C 
ATOM      4  N   UNL     1      64.244  23.926   4.323  1.00  0.00    -0.291 N 
ATOM      5  C   UNL     1      65.009  24.928   3.558  1.00  0.00     0.102 C 
ATOM      6  C   UNL     1      65.556  23.761   2.697  1.00  0.00     0.106 C 
ATOM      7  C   UNL     1      64.917  22.865   3.769  1.00  0.00     0.238 C 
ATOM      8  O   UNL     1      65.030  21.711   4.110  1.00  0.00    -0.274 OA
ENDROOT
BRANCH   3   9
ATOM      9  C   UNL     1      63.484  23.389   6.615  1.00  0.00     0.355 C 
ATOM     10  O   UNL     1      62.338  23.045   6.364  1.00  0.00    -0.244 OA
BRANCH   9  11
ATOM     11  O   UNL     1      64.146  23.147   7.774  1.00  0.00    -0.457 OA
BRANCH  11  12
ATOM     12  C   UNL     1      64.586  21.794   7.908  1.00  0.00     0.110 C 
BRANCH  12  13
ATOM     13  C   UNL     1      64.122  21.311   9.248  1.00  0.00    -0.054 C 
ATOM     14  C   UNL     1      63.785  22.108  10.271  1.00  0.00    -0.100 C 
ENDBRANCH  12  13
ENDBRANCH  11  12
ENDBRANCH   9  11
ENDBRANCH   3   9
BRANCH   6  15
ATOM     15  C   UNL     1      67.051  23.571   2.479  1.00  0.00     0.113 C 
ATOM     16  C   UNL     1      67.297  22.374   1.563  1.00  0.00    -0.027 C 
BRANCH  15  17
ATOM     17  O   UNL     1      67.530  24.757   1.801  1.00  0.00    -0.462 OA
BRANCH  17  18
ATOM     18  C   UNL     1      68.838  25.062   1.623  1.00  0.00     0.302 C 
ATOM     19  O   UNL     1      69.272  25.311   0.503  1.00  0.00    -0.253 OA
ATOM     20  C   UNL     1      69.717  25.105   2.836  1.00  0.00     0.034 C 
ENDBRANCH  17  18
ENDBRANCH  15  17
ENDBRANCH   6  15
TORSDOF 7
ENDMDL
MODEL 17
REMARK VINA RESULT:    -4.836     14.747     16.271
REMARK INTER + INTRA:          -7.087
REMARK INTER:                  -6.624
REMARK INTRA:                  -0.463
REMARK UNBOUND:                -0.271
REMARK SMILES C=CCOC(=O)C1=CS[C@H]2[C@@H]([C@@H](C)OC(C)=O)C(=O)N12
REMARK SMILES IDX 9 1 8 2 7 3 20 4 10 5 11 6 18 7 19 8 5 9 6 10 4 11 3 12 2 13
REMARK SMILES IDX 1 14 12 15 13 16 14 17 15 18 17 19 16 20
REMARK H PARENT
REMARK Flexibility Score: inf
ROOT
ATOM      1  S   UNL     1      61.676  26.640  -1.491  1.00  0.00    -0.105 SA
ATOM      2  C   UNL     1      60.234  25.654  -1.316  1.00  0.00     0.004 C 
ATOM      3  C   UNL     1      59.077  26.317  -1.213  1.00  0.00     0.137 C 
ATOM      4  N   UNL     1      59.184  27.685  -1.190  1.00  0.00    -0.291 N 
ATOM      5  C   UNL     1      60.591  28.105  -1.062  1.00  0.00     0.102 C 
ATOM      6  C   UNL     1      60.316  29.149  -2.174  1.00  0.00     0.106 C 
ATOM      7  C   UNL     1      58.990  28.393  -2.350  1.00  0.00     0.238 C 
ATOM      8  O   UNL     1      58.145  28.321  -3.211  1.00  0.00    -0.274 OA
ENDROOT
BRANCH   3   9
ATOM      9  C   UNL     1      57.735  25.680  -1.127  1.00  0.00     0.355 C 
ATOM     10  O   UNL     1      57.324  24.851  -1.925  1.00  0.00    -0.244 OA
BRANCH   9  11
ATOM     11  O   UNL     1      57.049  26.159  -0.060  1.00  0.00    -0.457 OA
BRANCH  11  12
ATOM     12  C   UNL     1      55.791  26.743  -0.405  1.00  0.00     0.110 C 
BRANCH  12  13
ATOM     13  C   UNL     1      55.628  27.969   0.441  1.00  0.00    -0.054 C 
ATOM     14  C   UNL     1      56.255  29.133   0.225  1.00  0.00    -0.100 C 
ENDBRANCH  12  13
ENDBRANCH  11  12
ENDBRANCH   9  11
ENDBRANCH   3   9
BRANCH   6  15
ATOM     15  C   UNL     1      61.199  29.238  -3.412  1.00  0.00     0.113 C 
ATOM     16  C   UNL     1      60.646  30.290  -4.372  1.00  0.00    -0.027 C 
BRANCH  15  17
ATOM     17  O   UNL     1      62.502  29.682  -2.966  1.00  0.00    -0.462 OA
BRANCH  17  18
ATOM     18  C   UNL     1      63.620  29.663  -3.731  1.00  0.00     0.302 C 
ATOM     19  O   UNL     1      64.180  30.710  -4.041  1.00  0.00    -0.253 OA
ATOM     20  C   UNL     1      64.152  28.329  -4.160  1.00  0.00     0.034 C 
ENDBRANCH  17  18
ENDBRANCH  15  17
ENDBRANCH   6  15
TORSDOF 7
ENDMDL
MODEL 18
REMARK VINA RESULT:    -4.825      2.969      7.908
REMARK INTER + INTRA:          -7.070
REMARK INTER:                  -7.067
REMARK INTRA:                  -0.003
REMARK UNBOUND:                -0.271
REMARK SMILES C=CCOC(=O)C1=CS[C@H]2[C@@H]([C@@H](C)OC(C)=O)C(=O)N12
REMARK SMILES IDX 9 1 8 2 7 3 20 4 10 5 11 6 18 7 19 8 5 9 6 10 4 11 3 12 2 13
REMARK SMILES IDX 1 14 12 15 13 16 14 17 15 18 17 19 16 20
REMARK H PARENT
REMARK Flexibility Score: inf
ROOT
ATOM      1  S   UNL     1      65.330  21.304   6.255  1.00  0.00    -0.105 SA
ATOM      2  C   UNL     1      65.164  20.987   7.975  1.00  0.00     0.004 C 
ATOM      3  C   UNL     1      64.610  21.964   8.701  1.00  0.00     0.137 C 
ATOM      4  N   UNL     1      64.308  23.110   8.011  1.00  0.00    -0.291 N 
ATOM      5  C   UNL     1      64.876  23.077   6.651  1.00  0.00     0.102 C 
ATOM      6  C   UNL     1      63.513  23.604   6.135  1.00  0.00     0.106 C 
ATOM      7  C   UNL     1      63.025  23.305   7.561  1.00  0.00     0.238 C 
ATOM      8  O   UNL     1      61.950  23.159   8.093  1.00  0.00    -0.274 OA
ENDROOT
BRANCH   3   9
ATOM      9  C   UNL     1      64.313  21.879  10.156  1.00  0.00     0.355 C 
ATOM     10  O   UNL     1      63.360  22.428  10.689  1.00  0.00    -0.244 OA
BRANCH   9  11
ATOM     11  O   UNL     1      65.247  21.125  10.789  1.00  0.00    -0.457 OA
BRANCH  11  12
ATOM     12  C   UNL     1      66.327  21.890  11.330  1.00  0.00     0.110 C 
BRANCH  12  13
ATOM     13  C   UNL     1      66.191  21.850  12.821  1.00  0.00    -0.054 C 
ATOM     14  C   UNL     1      67.124  22.275  13.683  1.00  0.00    -0.100 C 
ENDBRANCH  12  13
ENDBRANCH  11  12
ENDBRANCH   9  11
ENDBRANCH   3   9
BRANCH   6  15
ATOM     15  C   UNL     1      62.763  22.895   5.015  1.00  0.00     0.113 C 
ATOM     16  C   UNL     1      61.453  23.624   4.722  1.00  0.00    -0.027 C 
BRANCH  15  17
ATOM     17  O   UNL     1      63.595  22.981   3.833  1.00  0.00    -0.462 OA
BRANCH  17  18
ATOM     18  C   UNL     1      63.640  22.041   2.859  1.00  0.00     0.302 C 
ATOM     19  O   UNL     1      63.154  20.929   3.044  1.00  0.00    -0.253 OA
ATOM     20  C   UNL     1      64.280  22.414   1.556  1.00  0.00     0.034 C 
ENDBRANCH  17  18
ENDBRANCH  15  17
ENDBRANCH   6  15
TORSDOF 7
ENDMDL
MODEL 19
REMARK VINA RESULT:    -4.776      3.451      8.530
REMARK INTER + INTRA:          -7.001
REMARK INTER:                  -6.711
REMARK INTRA:                  -0.290
REMARK UNBOUND:                -0.271
REMARK SMILES C=CCOC(=O)C1=CS[C@H]2[C@@H]([C@@H](C)OC(C)=O)C(=O)N12
REMARK SMILES IDX 9 1 8 2 7 3 20 4 10 5 11 6 18 7 19 8 5 9 6 10 4 11 3 12 2 13
REMARK SMILES IDX 1 14 12 15 13 16 14 17 15 18 17 19 16 20
REMARK H PARENT
REMARK Flexibility Score: inf
ROOT
ATOM      1  S   UNL     1      62.317  22.232   5.679  1.00  0.00    -0.105 SA
ATOM      2  C   UNL     1      62.841  22.041   7.344  1.00  0.00     0.004 C 
ATOM      3  C   UNL     1      64.154  22.160   7.564  1.00  0.00     0.137 C 
ATOM      4  N   UNL     1      64.923  22.350   6.443  1.00  0.00    -0.291 N 
ATOM      5  C   UNL     1      64.130  22.155   5.216  1.00  0.00     0.102 C 
ATOM      6  C   UNL     1      64.787  23.443   4.660  1.00  0.00     0.106 C 
ATOM      7  C   UNL     1      65.302  23.623   6.097  1.00  0.00     0.238 C 
ATOM      8  O   UNL     1      65.750  24.540   6.745  1.00  0.00    -0.274 OA
ENDROOT
BRANCH   3   9
ATOM      9  C   UNL     1      64.802  22.104   8.902  1.00  0.00     0.355 C 
ATOM     10  O   UNL     1      65.737  21.366   9.174  1.00  0.00    -0.244 OA
BRANCH   9  11
ATOM     11  O   UNL     1      64.202  22.969   9.758  1.00  0.00    -0.457 OA
BRANCH  11  12
ATOM     12  C   UNL     1      63.754  22.357  10.969  1.00  0.00     0.110 C 
BRANCH  12  13
ATOM     13  C   UNL     1      64.565  22.943  12.084  1.00  0.00    -0.054 C 
ATOM     14  C   UNL     1      65.718  22.434  12.537  1.00  0.00    -0.100 C 
ENDBRANCH  12  13
ENDBRANCH  11  12
ENDBRANCH   9  11
ENDBRANCH   3   9
BRANCH   6  15
ATOM     15  C   UNL     1      63.946  24.587   4.109  1.00  0.00     0.113 C 
ATOM     16  C   UNL     1      64.854  25.698   3.585  1.00  0.00    -0.027 C 
BRANCH  15  17
ATOM     17  O   UNL     1      63.199  24.056   2.989  1.00  0.00    -0.462 OA
BRANCH  17  18
ATOM     18  C   UNL     1      62.018  24.555   2.550  1.00  0.00     0.302 C 
ATOM     19  O   UNL     1      61.050  24.616   3.301  1.00  0.00    -0.253 OA
ATOM     20  C   UNL     1      61.949  25.044   1.135  1.00  0.00     0.034 C 
ENDBRANCH  17  18
ENDBRANCH  15  17
ENDBRANCH   6  15
TORSDOF 7
ENDMDL
MODEL 20
REMARK VINA RESULT:    -4.706     14.259     16.443
REMARK INTER + INTRA:          -6.903
REMARK INTER:                  -6.632
REMARK INTRA:                  -0.271
REMARK UNBOUND:                -0.271
REMARK SMILES C=CCOC(=O)C1=CS[C@H]2[C@@H]([C@@H](C)OC(C)=O)C(=O)N12
REMARK SMILES IDX 9 1 8 2 7 3 20 4 10 5 11 6 18 7 19 8 5 9 6 10 4 11 3 12 2 13
REMARK SMILES IDX 1 14 12 15 13 16 14 17 15 18 17 19 16 20
REMARK H PARENT
REMARK Flexibility Score: inf
ROOT
ATOM      1  S   UNL     1      55.846  26.930  -2.518  1.00  0.00    -0.105 SA
ATOM      2  C   UNL     1      57.238  27.281  -3.530  1.00  0.00     0.004 C 
ATOM      3  C   UNL     1      58.289  27.830  -2.913  1.00  0.00     0.137 C 
ATOM      4  N   UNL     1      58.110  28.106  -1.581  1.00  0.00    -0.291 N 
ATOM      5  C   UNL     1      56.701  27.931  -1.187  1.00  0.00     0.102 C 
ATOM      6  C   UNL     1      57.209  27.178   0.068  1.00  0.00     0.106 C 
ATOM      7  C   UNL     1      58.571  27.215  -0.643  1.00  0.00     0.238 C 
ATOM      8  O   UNL     1      59.617  26.620  -0.536  1.00  0.00    -0.274 OA
ENDROOT
BRANCH   3   9
ATOM      9  C   UNL     1      59.590  28.143  -3.563  1.00  0.00     0.355 C 
ATOM     10  O   UNL     1      60.186  27.370  -4.299  1.00  0.00    -0.244 OA
BRANCH   9  11
ATOM     11  O   UNL     1      60.011  29.384  -3.213  1.00  0.00    -0.457 OA
BRANCH  11  12
ATOM     12  C   UNL     1      61.385  29.433  -2.824  1.00  0.00     0.110 C 
BRANCH  12  13
ATOM     13  C   UNL     1      62.105  30.246  -3.855  1.00  0.00    -0.054 C 
ATOM     14  C   UNL     1      63.384  30.635  -3.763  1.00  0.00    -0.100 C 
ENDBRANCH  12  13
ENDBRANCH  11  12
ENDBRANCH   9  11
ENDBRANCH   3   9
BRANCH   6  15
ATOM     15  C   UNL     1      56.685  25.793   0.426  1.00  0.00     0.113 C 
ATOM     16  C   UNL     1      57.430  25.252   1.644  1.00  0.00    -0.027 C 
BRANCH  15  17
ATOM     17  O   UNL     1      55.293  25.951   0.788  1.00  0.00    -0.462 OA
BRANCH  17  18
ATOM     18  C   UNL     1      54.294  25.142   0.362  1.00  0.00     0.302 C 
ATOM     19  O   UNL     1      53.123  25.416   0.609  1.00  0.00    -0.253 OA
ATOM     20  C   UNL     1      54.668  23.927  -0.431  1.00  0.00     0.034 C 
ENDBRANCH  17  18
ENDBRANCH  15  17
ENDBRANCH   6  15
TORSDOF 7
ENDMDL
