MODEL 1
REMARK VINA RESULT:   -12.943      0.000      0.000
REMARK INTER + INTRA:         -18.688
REMARK INTER:                 -18.163
REMARK INTRA:                  -0.525
REMARK UNBOUND:                -0.449
REMARK SMILES Cc1ccc(NC(=O)c2ccc(CN3CCN(C)CC3)cc2)cc1Nc1nccc(-c2cccnc2)n1
REMARK SMILES IDX 5 1 24 2 23 3 2 4 4 5 3 6 1 7 6 8 8 9 7 10 9 12 10 13 22 14
REMARK SMILES IDX 11 15 21 16 12 17 13 18 14 19 15 20 20 21 16 22 19 23 17 24
REMARK SMILES IDX 18 25 25 26 26 28 37 29 27 30 30 31 28 32 29 33 31 34 32 35
REMARK SMILES IDX 36 36 33 37 35 38 34 39
REMARK H PARENT 6 11 25 27
REMARK Flexibility Score: inf
ROOT
ATOM      1  C   UNL     1      16.692  52.778  13.440  1.00  0.00     0.043 A 
ATOM      2  C   UNL     1      15.906  54.759  12.341  1.00  0.00     0.046 A 
ATOM      3  C   UNL     1      15.800  53.836  13.381  1.00  0.00     0.052 A 
ATOM      4  C   UNL     1      16.902  54.611  11.376  1.00  0.00    -0.027 A 
ATOM      5  C   UNL     1      17.686  52.616  12.491  1.00  0.00     0.026 A 
ATOM      6  C   UNL     1      17.792  53.539  11.451  1.00  0.00     0.008 A 
ATOM      7  C   UNL     1      17.037  55.584  10.250  1.00  0.00     0.046 C 
ENDROOT
BRANCH   1   8
ATOM      8  N   UNL     1      16.585  51.841  14.496  1.00  0.00    -0.322 N 
ATOM      9  O   UNL     1      14.863  52.736  15.816  1.00  0.00    -0.269 OA
ATOM     10  C   UNL     1      15.712  51.859  15.594  1.00  0.00     0.255 C 
ATOM     11  H   UNL     1      17.212  51.048  14.395  1.00  0.00     0.170 HD
BRANCH  10  12
ATOM     12  C   UNL     1      15.858  50.761  16.538  1.00  0.00     0.040 A 
ATOM     13  C   UNL     1      17.110  50.184  16.748  1.00  0.00     0.014 A 
ATOM     14  C   UNL     1      14.746  50.285  17.230  1.00  0.00     0.014 A 
ATOM     15  C   UNL     1      17.250  49.131  17.653  1.00  0.00     0.006 A 
ATOM     16  C   UNL     1      14.885  49.233  18.135  1.00  0.00     0.006 A 
ATOM     17  C   UNL     1      16.136  48.666  18.336  1.00  0.00    -0.034 A 
BRANCH  17  18
ATOM     18  C   UNL     1      16.286  47.530  19.314  1.00  0.00     0.120 C 
BRANCH  18  19
ATOM     19  N   UNL     1      17.566  47.584  20.018  1.00  0.00    -0.297 NA
ATOM     20  C   UNL     1      18.280  46.307  19.902  1.00  0.00     0.100 C 
ATOM     21  C   UNL     1      17.369  47.934  21.430  1.00  0.00     0.100 C 
ATOM     22  C   UNL     1      19.622  46.364  20.641  1.00  0.00     0.099 C 
ATOM     23  C   UNL     1      18.710  47.990  22.171  1.00  0.00     0.099 C 
ATOM     24  N   UNL     1      19.426  46.714  22.053  1.00  0.00    -0.304 NA
ATOM     25  C   UNL     1      20.705  46.770  22.757  1.00  0.00     0.105 C 
ENDBRANCH  18  19
ENDBRANCH  17  18
ENDBRANCH  10  12
ENDBRANCH   1   8
BRANCH   2  26
ATOM     26  N   UNL     1      14.997  55.839  12.281  1.00  0.00    -0.324 N 
ATOM     27  H   UNL     1      14.049  55.587  12.020  1.00  0.00     0.170 HD
BRANCH  26  28
ATOM     28  C   UNL     1      15.110  57.197  12.627  1.00  0.00     0.227 A 
ATOM     29  N   UNL     1      14.027  57.971  12.409  1.00  0.00    -0.213 NA
ATOM     30  N   UNL     1      16.291  57.596  13.143  1.00  0.00    -0.221 NA
ATOM     31  C   UNL     1      14.171  59.269  12.751  1.00  0.00     0.077 A 
ATOM     32  C   UNL     1      16.366  58.904  13.463  1.00  0.00     0.117 A 
ATOM     33  C   UNL     1      15.328  59.796  13.287  1.00  0.00     0.049 A 
BRANCH  31  34
ATOM     34  C   UNL     1      13.011  60.096  12.519  1.00  0.00     0.019 A 
ATOM     35  C   UNL     1      12.883  61.339  13.128  1.00  0.00     0.013 A 
ATOM     36  C   UNL     1      11.989  59.676  11.682  1.00  0.00     0.121 A 
ATOM     37  C   UNL     1      11.753  62.113  12.886  1.00  0.00     0.021 A 
ATOM     38  N   UNL     1      10.878  60.400  11.422  1.00  0.00    -0.264 NA
ATOM     39  C   UNL     1      10.789  61.603  12.032  1.00  0.00     0.111 A 
ENDBRANCH  31  34
ENDBRANCH  26  28
ENDBRANCH   2  26
TORSDOF 7
ENDMDL
MODEL 2
REMARK VINA RESULT:   -11.108      3.623     11.997
REMARK INTER + INTRA:         -16.103
REMARK INTER:                 -15.245
REMARK INTRA:                  -0.857
REMARK UNBOUND:                -0.449
REMARK SMILES Cc1ccc(NC(=O)c2ccc(CN3CCN(C)CC3)cc2)cc1Nc1nccc(-c2cccnc2)n1
REMARK SMILES IDX 5 1 24 2 23 3 2 4 4 5 3 6 1 7 6 8 8 9 7 10 9 12 10 13 22 14
REMARK SMILES IDX 11 15 21 16 12 17 13 18 14 19 15 20 20 21 16 22 19 23 17 24
REMARK SMILES IDX 18 25 25 26 26 28 37 29 27 30 30 31 28 32 29 33 31 34 32 35
REMARK SMILES IDX 36 36 33 37 35 38 34 39
REMARK H PARENT 6 11 25 27
REMARK Flexibility Score: inf
ROOT
ATOM      1  C   UNL     1      16.941  49.798  17.149  1.00  0.00     0.043 A 
ATOM      2  C   UNL     1      18.361  48.648  18.702  1.00  0.00     0.046 A 
ATOM      3  C   UNL     1      18.130  49.733  17.856  1.00  0.00     0.052 A 
ATOM      4  C   UNL     1      17.400  47.645  18.827  1.00  0.00    -0.027 A 
ATOM      5  C   UNL     1      15.977  48.811  17.262  1.00  0.00     0.026 A 
ATOM      6  C   UNL     1      16.208  47.726  18.107  1.00  0.00     0.008 A 
ATOM      7  C   UNL     1      17.622  46.471  19.725  1.00  0.00     0.046 C 
ENDROOT
BRANCH   1   8
ATOM      8  N   UNL     1      16.706  50.899  16.290  1.00  0.00    -0.322 N 
ATOM      9  O   UNL     1      14.410  51.299  16.574  1.00  0.00    -0.269 OA
ATOM     10  C   UNL     1      15.501  51.575  16.049  1.00  0.00     0.255 C 
ATOM     11  H   UNL     1      17.546  51.240  15.834  1.00  0.00     0.170 HD
BRANCH  10  12
ATOM     12  C   UNL     1      15.565  52.662  15.084  1.00  0.00     0.040 A 
ATOM     13  C   UNL     1      16.636  52.740  14.193  1.00  0.00     0.014 A 
ATOM     14  C   UNL     1      14.559  53.625  15.051  1.00  0.00     0.014 A 
ATOM     15  C   UNL     1      16.698  53.783  13.268  1.00  0.00     0.006 A 
ATOM     16  C   UNL     1      14.621  54.668  14.126  1.00  0.00     0.006 A 
ATOM     17  C   UNL     1      15.691  54.736  13.244  1.00  0.00    -0.034 A 
BRANCH  17  18
ATOM     18  C   UNL     1      15.757  55.861  12.246  1.00  0.00     0.120 C 
BRANCH  18  19
ATOM     19  N   UNL     1      15.074  57.059  12.731  1.00  0.00    -0.297 NA
ATOM     20  C   UNL     1      13.927  57.389  11.875  1.00  0.00     0.100 C 
ATOM     21  C   UNL     1      16.001  58.195  12.803  1.00  0.00     0.100 C 
ATOM     22  C   UNL     1      13.211  58.645  12.383  1.00  0.00     0.099 C 
ATOM     23  C   UNL     1      15.285  59.452  13.310  1.00  0.00     0.099 C 
ATOM     24  N   UNL     1      14.138  59.781  12.455  1.00  0.00    -0.304 NA
ATOM     25  C   UNL     1      13.455  60.978  12.942  1.00  0.00     0.105 C 
ENDBRANCH  18  19
ENDBRANCH  17  18
ENDBRANCH  10  12
ENDBRANCH   1   8
BRANCH   2  26
ATOM     26  N   UNL     1      19.573  48.582  19.424  1.00  0.00    -0.324 N 
ATOM     27  H   UNL     1      19.468  48.508  20.431  1.00  0.00     0.170 HD
BRANCH  26  28
ATOM     28  C   UNL     1      20.917  48.478  19.021  1.00  0.00     0.227 A 
ATOM     29  N   UNL     1      21.531  49.623  18.659  1.00  0.00    -0.213 NA
ATOM     30  N   UNL     1      21.460  47.244  19.034  1.00  0.00    -0.221 NA
ATOM     31  C   UNL     1      22.819  49.487  18.278  1.00  0.00     0.077 A 
ATOM     32  C   UNL     1      22.750  47.180  18.642  1.00  0.00     0.117 A 
ATOM     33  C   UNL     1      23.486  48.279  18.248  1.00  0.00     0.049 A 
BRANCH  31  34
ATOM     34  C   UNL     1      23.476  50.712  17.892  1.00  0.00     0.019 A 
ATOM     35  C   UNL     1      24.608  50.696  17.084  1.00  0.00     0.013 A 
ATOM     36  C   UNL     1      23.000  51.943  18.316  1.00  0.00     0.121 A 
ATOM     37  C   UNL     1      25.221  51.893  16.730  1.00  0.00     0.021 A 
ATOM     38  N   UNL     1      23.569  53.126  17.992  1.00  0.00    -0.264 NA
ATOM     39  C   UNL     1      24.666  53.071  17.206  1.00  0.00     0.111 A 
ENDBRANCH  31  34
ENDBRANCH  26  28
ENDBRANCH   2  26
TORSDOF 7
ENDMDL
MODEL 3
REMARK VINA RESULT:   -11.041      2.164     12.381
REMARK INTER + INTRA:         -16.008
REMARK INTER:                 -15.283
REMARK INTRA:                  -0.724
REMARK UNBOUND:                -0.449
REMARK SMILES Cc1ccc(NC(=O)c2ccc(CN3CCN(C)CC3)cc2)cc1Nc1nccc(-c2cccnc2)n1
REMARK SMILES IDX 5 1 24 2 23 3 2 4 4 5 3 6 1 7 6 8 8 9 7 10 9 12 10 13 22 14
REMARK SMILES IDX 11 15 21 16 12 17 13 18 14 19 15 20 20 21 16 22 19 23 17 24
REMARK SMILES IDX 18 25 25 26 26 28 37 29 27 30 30 31 28 32 29 33 31 34 32 35
REMARK SMILES IDX 36 36 33 37 35 38 34 39
REMARK H PARENT 6 11 25 27
REMARK Flexibility Score: inf
ROOT
ATOM      1  C   UNL     1      14.451  50.154  17.133  1.00  0.00     0.043 A 
ATOM      2  C   UNL     1      15.254  48.277  18.390  1.00  0.00     0.046 A 
ATOM      3  C   UNL     1      15.487  49.300  17.471  1.00  0.00     0.052 A 
ATOM      4  C   UNL     1      13.988  48.123  18.956  1.00  0.00    -0.027 A 
ATOM      5  C   UNL     1      13.189  50.016  17.685  1.00  0.00     0.026 A 
ATOM      6  C   UNL     1      12.956  48.992  18.604  1.00  0.00     0.008 A 
ATOM      7  C   UNL     1      13.711  47.035  19.942  1.00  0.00     0.046 C 
ENDROOT
BRANCH   1   8
ATOM      8  N   UNL     1      14.686  51.193  16.201  1.00  0.00    -0.322 N 
ATOM      9  O   UNL     1      17.002  51.054  15.840  1.00  0.00    -0.269 OA
ATOM     10  C   UNL     1      15.901  51.584  15.618  1.00  0.00     0.255 C 
ATOM     11  H   UNL     1      13.840  51.674  15.911  1.00  0.00     0.170 HD
BRANCH  10  12
ATOM     12  C   UNL     1      15.833  52.716  14.707  1.00  0.00     0.040 A 
ATOM     13  C   UNL     1      16.823  52.893  13.739  1.00  0.00     0.014 A 
ATOM     14  C   UNL     1      14.781  53.626  14.802  1.00  0.00     0.014 A 
ATOM     15  C   UNL     1      16.758  53.979  12.866  1.00  0.00     0.006 A 
ATOM     16  C   UNL     1      14.716  54.712  13.929  1.00  0.00     0.006 A 
ATOM     17  C   UNL     1      15.707  54.877  12.970  1.00  0.00    -0.034 A 
BRANCH  17  18
ATOM     18  C   UNL     1      15.636  56.050  12.027  1.00  0.00     0.120 C 
BRANCH  18  19
ATOM     19  N   UNL     1      14.896  57.170  12.607  1.00  0.00    -0.297 NA
ATOM     20  C   UNL     1      13.744  57.523  11.770  1.00  0.00     0.100 C 
ATOM     21  C   UNL     1      15.772  58.333  12.790  1.00  0.00     0.100 C 
ATOM     22  C   UNL     1      12.969  58.697  12.377  1.00  0.00     0.099 C 
ATOM     23  C   UNL     1      14.997  59.509  13.396  1.00  0.00     0.099 C 
ATOM     24  N   UNL     1      13.844  59.862  12.560  1.00  0.00    -0.304 NA
ATOM     25  C   UNL     1      13.104  60.980  13.142  1.00  0.00     0.105 C 
ENDBRANCH  18  19
ENDBRANCH  17  18
ENDBRANCH  10  12
ENDBRANCH   1   8
BRANCH   2  26
ATOM     26  N   UNL     1      16.311  47.406  18.736  1.00  0.00    -0.324 N 
ATOM     27  H   UNL     1      16.349  46.545  18.200  1.00  0.00     0.170 HD
BRANCH  26  28
ATOM     28  C   UNL     1      17.408  47.541  19.605  1.00  0.00     0.227 A 
ATOM     29  N   UNL     1      18.604  47.799  19.037  1.00  0.00    -0.213 NA
ATOM     30  N   UNL     1      17.159  47.398  20.923  1.00  0.00    -0.221 NA
ATOM     31  C   UNL     1      19.634  47.922  19.901  1.00  0.00     0.077 A 
ATOM     32  C   UNL     1      18.233  47.533  21.729  1.00  0.00     0.117 A 
ATOM     33  C   UNL     1      19.507  47.797  21.269  1.00  0.00     0.049 A 
BRANCH  31  34
ATOM     34  C   UNL     1      20.913  48.200  19.293  1.00  0.00     0.019 A 
ATOM     35  C   UNL     1      21.790  47.172  18.962  1.00  0.00     0.013 A 
ATOM     36  C   UNL     1      21.308  49.501  19.020  1.00  0.00     0.121 A 
ATOM     37  C   UNL     1      23.015  47.471  18.378  1.00  0.00     0.021 A 
ATOM     38  N   UNL     1      22.491  49.830  18.454  1.00  0.00    -0.264 NA
ATOM     39  C   UNL     1      23.315  48.804  18.146  1.00  0.00     0.111 A 
ENDBRANCH  31  34
ENDBRANCH  26  28
ENDBRANCH   2  26
TORSDOF 7
ENDMDL
MODEL 4
REMARK VINA RESULT:   -10.741      2.948     12.066
REMARK INTER + INTRA:         -15.585
REMARK INTER:                 -14.543
REMARK INTRA:                  -1.042
REMARK UNBOUND:                -0.449
REMARK SMILES Cc1ccc(NC(=O)c2ccc(CN3CCN(C)CC3)cc2)cc1Nc1nccc(-c2cccnc2)n1
REMARK SMILES IDX 5 1 24 2 23 3 2 4 4 5 3 6 1 7 6 8 8 9 7 10 9 12 10 13 22 14
REMARK SMILES IDX 11 15 21 16 12 17 13 18 14 19 15 20 20 21 16 22 19 23 17 24
REMARK SMILES IDX 18 25 25 26 26 28 37 29 27 30 30 31 28 32 29 33 31 34 32 35
REMARK SMILES IDX 36 36 33 37 35 38 34 39
REMARK H PARENT 6 11 25 27
REMARK Flexibility Score: inf
ROOT
ATOM      1  C   UNL     1      15.669  50.773  16.664  1.00  0.00     0.043 A 
ATOM      2  C   UNL     1      16.831  48.911  17.631  1.00  0.00     0.046 A 
ATOM      3  C   UNL     1      16.854  50.095  16.893  1.00  0.00     0.052 A 
ATOM      4  C   UNL     1      15.622  48.424  18.128  1.00  0.00    -0.027 A 
ATOM      5  C   UNL     1      14.461  50.303  17.150  1.00  0.00     0.026 A 
ATOM      6  C   UNL     1      14.437  49.120  17.888  1.00  0.00     0.008 A 
ATOM      7  C   UNL     1      15.568  47.158  18.920  1.00  0.00     0.046 C 
ENDROOT
BRANCH   1   8
ATOM      8  N   UNL     1      15.692  51.975  15.916  1.00  0.00    -0.322 N 
ATOM      9  O   UNL     1      15.226  51.240  13.736  1.00  0.00    -0.269 OA
ATOM     10  C   UNL     1      15.479  52.150  14.541  1.00  0.00     0.255 C 
ATOM     11  H   UNL     1      15.852  52.801  16.485  1.00  0.00     0.170 HD
BRANCH  10  12
ATOM     12  C   UNL     1      15.596  53.515  14.049  1.00  0.00     0.040 A 
ATOM     13  C   UNL     1      14.502  54.133  13.442  1.00  0.00     0.014 A 
ATOM     14  C   UNL     1      16.800  54.204  14.183  1.00  0.00     0.014 A 
ATOM     15  C   UNL     1      14.614  55.440  12.970  1.00  0.00     0.006 A 
ATOM     16  C   UNL     1      16.912  55.511  13.711  1.00  0.00     0.006 A 
ATOM     17  C   UNL     1      15.818  56.116  13.108  1.00  0.00    -0.034 A 
BRANCH  17  18
ATOM     18  C   UNL     1      15.939  57.528  12.599  1.00  0.00     0.120 C 
BRANCH  18  19
ATOM     19  N   UNL     1      14.710  58.291  12.814  1.00  0.00    -0.297 NA
ATOM     20  C   UNL     1      13.944  58.408  11.567  1.00  0.00     0.100 C 
ATOM     21  C   UNL     1      15.011  59.621  13.358  1.00  0.00     0.100 C 
ATOM     22  C   UNL     1      12.656  59.208  11.792  1.00  0.00     0.099 C 
ATOM     23  C   UNL     1      13.723  60.422  13.581  1.00  0.00     0.099 C 
ATOM     24  N   UNL     1      12.956  60.538  12.335  1.00  0.00    -0.304 NA
ATOM     25  C   UNL     1      11.727  61.300  12.552  1.00  0.00     0.105 C 
ENDBRANCH  18  19
ENDBRANCH  17  18
ENDBRANCH  10  12
ENDBRANCH   1   8
BRANCH   2  26
ATOM     26  N   UNL     1      18.040  48.220  17.866  1.00  0.00    -0.324 N 
ATOM     27  H   UNL     1      18.231  47.460  17.221  1.00  0.00     0.170 HD
BRANCH  26  28
ATOM     28  C   UNL     1      19.108  48.445  18.753  1.00  0.00     0.227 A 
ATOM     29  N   UNL     1      20.011  49.379  18.391  1.00  0.00    -0.213 NA
ATOM     30  N   UNL     1      19.125  47.706  19.881  1.00  0.00    -0.221 NA
ATOM     31  C   UNL     1      21.022  49.569  19.265  1.00  0.00     0.077 A 
ATOM     32  C   UNL     1      20.162  47.947  20.710  1.00  0.00     0.117 A 
ATOM     33  C   UNL     1      21.150  48.875  20.451  1.00  0.00     0.049 A 
BRANCH  31  34
ATOM     34  C   UNL     1      21.987  50.569  18.877  1.00  0.00     0.019 A 
ATOM     35  C   UNL     1      23.350  50.289  18.876  1.00  0.00     0.013 A 
ATOM     36  C   UNL     1      21.587  51.839  18.495  1.00  0.00     0.121 A 
ATOM     37  C   UNL     1      24.256  51.273  18.498  1.00  0.00     0.021 A 
ATOM     38  N   UNL     1      22.438  52.821  18.122  1.00  0.00    -0.264 NA
ATOM     39  C   UNL     1      23.754  52.511  18.133  1.00  0.00     0.111 A 
ENDBRANCH  31  34
ENDBRANCH  26  28
ENDBRANCH   2  26
TORSDOF 7
ENDMDL
MODEL 5
REMARK VINA RESULT:   -10.151      6.788     12.011
REMARK INTER + INTRA:         -14.754
REMARK INTER:                 -13.883
REMARK INTRA:                  -0.871
REMARK UNBOUND:                -0.449
REMARK SMILES Cc1ccc(NC(=O)c2ccc(CN3CCN(C)CC3)cc2)cc1Nc1nccc(-c2cccnc2)n1
REMARK SMILES IDX 5 1 24 2 23 3 2 4 4 5 3 6 1 7 6 8 8 9 7 10 9 12 10 13 22 14
REMARK SMILES IDX 11 15 21 16 12 17 13 18 14 19 15 20 20 21 16 22 19 23 17 24
REMARK SMILES IDX 18 25 25 26 26 28 37 29 27 30 30 31 28 32 29 33 31 34 32 35
REMARK SMILES IDX 36 36 33 37 35 38 34 39
REMARK H PARENT 6 11 25 27
REMARK Flexibility Score: inf
ROOT
ATOM      1  C   UNL     1      21.716  47.271  19.714  1.00  0.00     0.043 A 
ATOM      2  C   UNL     1      19.730  46.357  20.698  1.00  0.00     0.046 A 
ATOM      3  C   UNL     1      20.466  47.464  20.276  1.00  0.00     0.052 A 
ATOM      4  C   UNL     1      20.257  45.073  20.552  1.00  0.00    -0.027 A 
ATOM      5  C   UNL     1      22.254  46.005  19.562  1.00  0.00     0.026 A 
ATOM      6  C   UNL     1      21.519  44.897  19.984  1.00  0.00     0.008 A 
ATOM      7  C   UNL     1      19.491  43.869  20.996  1.00  0.00     0.046 C 
ENDROOT
BRANCH   1   8
ATOM      8  N   UNL     1      22.464  48.395  19.285  1.00  0.00    -0.322 N 
ATOM      9  O   UNL     1      20.794  49.952  18.739  1.00  0.00    -0.269 OA
ATOM     10  C   UNL     1      21.991  49.636  18.834  1.00  0.00     0.255 C 
ATOM     11  H   UNL     1      23.468  48.263  19.361  1.00  0.00     0.170 HD
BRANCH  10  12
ATOM     12  C   UNL     1      23.009  50.595  18.432  1.00  0.00     0.040 A 
ATOM     13  C   UNL     1      23.864  50.299  17.369  1.00  0.00     0.014 A 
ATOM     14  C   UNL     1      23.132  51.807  19.109  1.00  0.00     0.014 A 
ATOM     15  C   UNL     1      24.840  51.217  16.984  1.00  0.00     0.006 A 
ATOM     16  C   UNL     1      24.109  52.725  18.723  1.00  0.00     0.006 A 
ATOM     17  C   UNL     1      24.954  52.420  17.665  1.00  0.00    -0.034 A 
BRANCH  17  18
ATOM     18  C   UNL     1      26.007  53.412  17.248  1.00  0.00     0.120 C 
BRANCH  18  19
ATOM     19  N   UNL     1      25.505  54.351  16.246  1.00  0.00    -0.297 NA
ATOM     20  C   UNL     1      26.337  54.319  15.038  1.00  0.00     0.100 C 
ATOM     21  C   UNL     1      25.445  55.712  16.791  1.00  0.00     0.100 C 
ATOM     22  C   UNL     1      25.810  55.303  13.987  1.00  0.00     0.099 C 
ATOM     23  C   UNL     1      24.920  56.698  15.740  1.00  0.00     0.099 C 
ATOM     24  N   UNL     1      25.751  56.665  14.531  1.00  0.00    -0.304 NA
ATOM     25  C   UNL     1      25.246  57.602  13.530  1.00  0.00     0.105 C 
ENDBRANCH  18  19
ENDBRANCH  17  18
ENDBRANCH  10  12
ENDBRANCH   1   8
BRANCH   2  26
ATOM     26  N   UNL     1      18.453  46.553  21.270  1.00  0.00    -0.324 N 
ATOM     27  H   UNL     1      18.459  46.802  22.254  1.00  0.00     0.170 HD
BRANCH  26  28
ATOM     28  C   UNL     1      17.160  46.587  20.719  1.00  0.00     0.227 A 
ATOM     29  N   UNL     1      16.897  47.583  19.848  1.00  0.00    -0.213 NA
ATOM     30  N   UNL     1      16.306  45.621  21.116  1.00  0.00    -0.221 NA
ATOM     31  C   UNL     1      15.647  47.585  19.340  1.00  0.00     0.077 A 
ATOM     32  C   UNL     1      15.074  45.684  20.569  1.00  0.00     0.117 A 
ATOM     33  C   UNL     1      14.685  46.653  19.667  1.00  0.00     0.049 A 
BRANCH  31  34
ATOM     34  C   UNL     1      15.367  48.650  18.406  1.00  0.00     0.019 A 
ATOM     35  C   UNL     1      14.087  49.178  18.282  1.00  0.00     0.013 A 
ATOM     36  C   UNL     1      16.367  49.179  17.604  1.00  0.00     0.121 A 
ATOM     37  C   UNL     1      13.848  50.203  17.374  1.00  0.00     0.021 A 
ATOM     38  N   UNL     1      16.172  50.175  16.711  1.00  0.00    -0.264 NA
ATOM     39  C   UNL     1      14.916  50.662  16.619  1.00  0.00     0.111 A 
ENDBRANCH  31  34
ENDBRANCH  26  28
ENDBRANCH   2  26
TORSDOF 7
ENDMDL
MODEL 6
REMARK VINA RESULT:   -10.117      7.533     11.981
REMARK INTER + INTRA:         -14.706
REMARK INTER:                 -13.541
REMARK INTRA:                  -1.165
REMARK UNBOUND:                -0.449
REMARK SMILES Cc1ccc(NC(=O)c2ccc(CN3CCN(C)CC3)cc2)cc1Nc1nccc(-c2cccnc2)n1
REMARK SMILES IDX 5 1 24 2 23 3 2 4 4 5 3 6 1 7 6 8 8 9 7 10 9 12 10 13 22 14
REMARK SMILES IDX 11 15 21 16 12 17 13 18 14 19 15 20 20 21 16 22 19 23 17 24
REMARK SMILES IDX 18 25 25 26 26 28 37 29 27 30 30 31 28 32 29 33 31 34 32 35
REMARK SMILES IDX 36 36 33 37 35 38 34 39
REMARK H PARENT 6 11 25 27
REMARK Flexibility Score: inf
ROOT
ATOM      1  C   UNL     1      22.066  47.464  19.432  1.00  0.00     0.043 A 
ATOM      2  C   UNL     1      19.915  46.426  19.649  1.00  0.00     0.046 A 
ATOM      3  C   UNL     1      20.712  47.451  19.140  1.00  0.00     0.052 A 
ATOM      4  C   UNL     1      20.484  45.429  20.443  1.00  0.00    -0.027 A 
ATOM      5  C   UNL     1      22.646  46.483  20.217  1.00  0.00     0.026 A 
ATOM      6  C   UNL     1      21.849  45.458  20.727  1.00  0.00     0.008 A 
ATOM      7  C   UNL     1      19.653  44.320  21.002  1.00  0.00     0.046 C 
ENDROOT
BRANCH   1   8
ATOM      8  N   UNL     1      22.876  48.504  18.915  1.00  0.00    -0.322 N 
ATOM      9  O   UNL     1      22.438  50.283  20.383  1.00  0.00    -0.269 OA
ATOM     10  C   UNL     1      23.021  49.815  19.392  1.00  0.00     0.255 C 
ATOM     11  H   UNL     1      23.437  48.219  18.118  1.00  0.00     0.170 HD
BRANCH  10  12
ATOM     12  C   UNL     1      23.914  50.672  18.627  1.00  0.00     0.040 A 
ATOM     13  C   UNL     1      24.607  51.702  19.265  1.00  0.00     0.014 A 
ATOM     14  C   UNL     1      24.076  50.467  17.258  1.00  0.00     0.014 A 
ATOM     15  C   UNL     1      25.462  52.525  18.533  1.00  0.00     0.006 A 
ATOM     16  C   UNL     1      24.931  51.291  16.526  1.00  0.00     0.006 A 
ATOM     17  C   UNL     1      25.615  52.312  17.171  1.00  0.00    -0.034 A 
BRANCH  17  18
ATOM     18  C   UNL     1      26.539  53.200  16.379  1.00  0.00     0.120 C 
BRANCH  18  19
ATOM     19  N   UNL     1      25.816  54.286  15.720  1.00  0.00    -0.297 NA
ATOM     20  C   UNL     1      26.415  54.596  14.416  1.00  0.00     0.100 C 
ATOM     21  C   UNL     1      25.789  55.484  16.569  1.00  0.00     0.100 C 
ATOM     22  C   UNL     1      25.658  55.736  13.726  1.00  0.00     0.099 C 
ATOM     23  C   UNL     1      25.033  56.625  15.878  1.00  0.00     0.099 C 
ATOM     24  N   UNL     1      25.631  56.934  14.573  1.00  0.00    -0.304 NA
ATOM     25  C   UNL     1      24.906  58.019  13.915  1.00  0.00     0.105 C 
ENDBRANCH  18  19
ENDBRANCH  17  18
ENDBRANCH  10  12
ENDBRANCH   1   8
BRANCH   2  26
ATOM     26  N   UNL     1      18.534  46.412  19.351  1.00  0.00    -0.324 N 
ATOM     27  H   UNL     1      18.227  45.629  18.783  1.00  0.00     0.170 HD
BRANCH  26  28
ATOM     28  C   UNL     1      17.460  47.210  19.783  1.00  0.00     0.227 A 
ATOM     29  N   UNL     1      16.528  47.525  18.860  1.00  0.00    -0.213 NA
ATOM     30  N   UNL     1      17.465  47.585  21.079  1.00  0.00    -0.221 NA
ATOM     31  C   UNL     1      15.513  48.292  19.308  1.00  0.00     0.077 A 
ATOM     32  C   UNL     1      16.421  48.350  21.460  1.00  0.00     0.117 A 
ATOM     33  C   UNL     1      15.406  48.739  20.610  1.00  0.00     0.049 A 
BRANCH  31  34
ATOM     34  C   UNL     1      14.515  48.627  18.321  1.00  0.00     0.019 A 
ATOM     35  C   UNL     1      13.207  48.917  18.691  1.00  0.00     0.013 A 
ATOM     36  C   UNL     1      14.831  48.669  16.971  1.00  0.00     0.121 A 
ATOM     37  C   UNL     1      12.267  49.235  17.717  1.00  0.00     0.021 A 
ATOM     38  N   UNL     1      13.945  48.974  15.996  1.00  0.00    -0.264 NA
ATOM     39  C   UNL     1      12.684  49.250  16.395  1.00  0.00     0.111 A 
ENDBRANCH  31  34
ENDBRANCH  26  28
ENDBRANCH   2  26
TORSDOF 7
ENDMDL
MODEL 7
REMARK VINA RESULT:   -10.051      3.237     12.161
REMARK INTER + INTRA:         -14.613
REMARK INTER:                 -13.842
REMARK INTRA:                  -0.771
REMARK UNBOUND:                -0.449
REMARK SMILES Cc1ccc(NC(=O)c2ccc(CN3CCN(C)CC3)cc2)cc1Nc1nccc(-c2cccnc2)n1
REMARK SMILES IDX 5 1 24 2 23 3 2 4 4 5 3 6 1 7 6 8 8 9 7 10 9 12 10 13 22 14
REMARK SMILES IDX 11 15 21 16 12 17 13 18 14 19 15 20 20 21 16 22 19 23 17 24
REMARK SMILES IDX 18 25 25 26 26 28 37 29 27 30 30 31 28 32 29 33 31 34 32 35
REMARK SMILES IDX 36 36 33 37 35 38 34 39
REMARK H PARENT 6 11 25 27
REMARK Flexibility Score: inf
ROOT
ATOM      1  C   UNL     1      17.378  49.549  17.502  1.00  0.00     0.043 A 
ATOM      2  C   UNL     1      18.966  48.455  18.927  1.00  0.00     0.046 A 
ATOM      3  C   UNL     1      18.657  49.474  18.026  1.00  0.00     0.052 A 
ATOM      4  C   UNL     1      17.989  47.526  19.289  1.00  0.00    -0.027 A 
ATOM      5  C   UNL     1      16.398  48.637  17.851  1.00  0.00     0.026 A 
ATOM      6  C   UNL     1      16.705  47.617  18.751  1.00  0.00     0.008 A 
ATOM      7  C   UNL     1      18.292  46.424  20.251  1.00  0.00     0.046 C 
ENDROOT
BRANCH   1   8
ATOM      8  N   UNL     1      17.065  50.584  16.587  1.00  0.00    -0.322 N 
ATOM      9  O   UNL     1      14.769  50.919  16.947  1.00  0.00    -0.269 OA
ATOM     10  C   UNL     1      15.825  51.199  16.357  1.00  0.00     0.255 C 
ATOM     11  H   UNL     1      17.871  50.925  16.073  1.00  0.00     0.170 HD
BRANCH  10  12
ATOM     12  C   UNL     1      15.807  52.224  15.324  1.00  0.00     0.040 A 
ATOM     13  C   UNL     1      14.924  53.300  15.425  1.00  0.00     0.014 A 
ATOM     14  C   UNL     1      16.669  52.129  14.233  1.00  0.00     0.014 A 
ATOM     15  C   UNL     1      14.906  54.281  14.434  1.00  0.00     0.006 A 
ATOM     16  C   UNL     1      16.651  53.111  13.242  1.00  0.00     0.006 A 
ATOM     17  C   UNL     1      15.768  54.177  13.353  1.00  0.00    -0.034 A 
BRANCH  17  18
ATOM     18  C   UNL     1      15.750  55.237  12.283  1.00  0.00     0.120 C 
BRANCH  18  19
ATOM     19  N   UNL     1      15.278  56.521  12.799  1.00  0.00    -0.297 NA
ATOM     20  C   UNL     1      14.094  56.977  12.062  1.00  0.00     0.100 C 
ATOM     21  C   UNL     1      16.342  57.531  12.733  1.00  0.00     0.100 C 
ATOM     22  C   UNL     1      13.600  58.323  12.602  1.00  0.00     0.099 C 
ATOM     23  C   UNL     1      15.848  58.879  13.272  1.00  0.00     0.099 C 
ATOM     24  N   UNL     1      14.662  59.334  12.536  1.00  0.00    -0.304 NA
ATOM     25  C   UNL     1      14.192  60.617  13.054  1.00  0.00     0.105 C 
ENDBRANCH  18  19
ENDBRANCH  17  18
ENDBRANCH  10  12
ENDBRANCH   1   8
BRANCH   2  26
ATOM     26  N   UNL     1      20.270  48.378  19.463  1.00  0.00    -0.324 N 
ATOM     27  H   UNL     1      20.616  47.436  19.613  1.00  0.00     0.170 HD
BRANCH  26  28
ATOM     28  C   UNL     1      21.248  49.353  19.727  1.00  0.00     0.227 A 
ATOM     29  N   UNL     1      21.196  49.954  20.934  1.00  0.00    -0.213 NA
ATOM     30  N   UNL     1      22.145  49.594  18.749  1.00  0.00    -0.221 NA
ATOM     31  C   UNL     1      22.149  50.884  21.153  1.00  0.00     0.077 A 
ATOM     32  C   UNL     1      23.069  50.534  19.035  1.00  0.00     0.117 A 
ATOM     33  C   UNL     1      23.120  51.218  20.232  1.00  0.00     0.049 A 
BRANCH  31  34
ATOM     34  C   UNL     1      22.093  51.525  22.445  1.00  0.00     0.019 A 
ATOM     35  C   UNL     1      20.953  51.444  23.238  1.00  0.00     0.013 A 
ATOM     36  C   UNL     1      23.173  52.243  22.935  1.00  0.00     0.121 A 
ATOM     37  C   UNL     1      20.929  52.073  24.478  1.00  0.00     0.021 A 
ATOM     38  N   UNL     1      23.186  52.867  24.134  1.00  0.00    -0.264 NA
ATOM     39  C   UNL     1      22.061  52.765  24.876  1.00  0.00     0.111 A 
ENDBRANCH  31  34
ENDBRANCH  26  28
ENDBRANCH   2  26
TORSDOF 7
ENDMDL
MODEL 8
REMARK VINA RESULT:    -9.953      1.744     13.189
REMARK INTER + INTRA:         -14.475
REMARK INTER:                 -13.986
REMARK INTRA:                  -0.488
REMARK UNBOUND:                -0.449
REMARK SMILES Cc1ccc(NC(=O)c2ccc(CN3CCN(C)CC3)cc2)cc1Nc1nccc(-c2cccnc2)n1
REMARK SMILES IDX 5 1 24 2 23 3 2 4 4 5 3 6 1 7 6 8 8 9 7 10 9 12 10 13 22 14
REMARK SMILES IDX 11 15 21 16 12 17 13 18 14 19 15 20 20 21 16 22 19 23 17 24
REMARK SMILES IDX 18 25 25 26 26 28 37 29 27 30 30 31 28 32 29 33 31 34 32 35
REMARK SMILES IDX 36 36 33 37 35 38 34 39
REMARK H PARENT 6 11 25 27
REMARK Flexibility Score: inf
ROOT
ATOM      1  C   UNL     1      14.370  50.213  17.138  1.00  0.00     0.043 A 
ATOM      2  C   UNL     1      15.177  48.767  18.872  1.00  0.00     0.046 A 
ATOM      3  C   UNL     1      15.408  49.787  17.948  1.00  0.00     0.052 A 
ATOM      4  C   UNL     1      13.911  48.189  18.969  1.00  0.00    -0.027 A 
ATOM      5  C   UNL     1      13.108  49.651  17.221  1.00  0.00     0.026 A 
ATOM      6  C   UNL     1      12.876  48.631  18.144  1.00  0.00     0.008 A 
ATOM      7  C   UNL     1      13.635  47.094  19.948  1.00  0.00     0.046 C 
ENDROOT
BRANCH   1   8
ATOM      8  N   UNL     1      14.605  51.249  16.201  1.00  0.00    -0.322 N 
ATOM      9  O   UNL     1      16.911  51.077  15.801  1.00  0.00    -0.269 OA
ATOM     10  C   UNL     1      15.815  51.622  15.597  1.00  0.00     0.255 C 
ATOM     11  H   UNL     1      13.760  51.741  15.925  1.00  0.00     0.170 HD
BRANCH  10  12
ATOM     12  C   UNL     1      15.747  52.755  14.687  1.00  0.00     0.040 A 
ATOM     13  C   UNL     1      14.719  53.690  14.812  1.00  0.00     0.014 A 
ATOM     14  C   UNL     1      16.707  52.905  13.687  1.00  0.00     0.014 A 
ATOM     15  C   UNL     1      14.653  54.775  13.939  1.00  0.00     0.006 A 
ATOM     16  C   UNL     1      16.641  53.990  12.814  1.00  0.00     0.006 A 
ATOM     17  C   UNL     1      15.614  54.914  12.948  1.00  0.00    -0.034 A 
BRANCH  17  18
ATOM     18  C   UNL     1      15.544  56.086  12.005  1.00  0.00     0.120 C 
BRANCH  18  19
ATOM     19  N   UNL     1      14.813  57.210  12.588  1.00  0.00    -0.297 NA
ATOM     20  C   UNL     1      13.694  57.608  11.725  1.00  0.00     0.100 C 
ATOM     21  C   UNL     1      15.709  58.349  12.824  1.00  0.00     0.100 C 
ATOM     22  C   UNL     1      12.928  58.787  12.336  1.00  0.00     0.099 C 
ATOM     23  C   UNL     1      14.942  59.529  13.433  1.00  0.00     0.099 C 
ATOM     24  N   UNL     1      13.822  59.926  12.572  1.00  0.00    -0.304 NA
ATOM     25  C   UNL     1      13.091  61.048  13.156  1.00  0.00     0.105 C 
ENDBRANCH  18  19
ENDBRANCH  17  18
ENDBRANCH  10  12
ENDBRANCH   1   8
BRANCH   2  26
ATOM     26  N   UNL     1      16.235  48.332  19.700  1.00  0.00    -0.324 N 
ATOM     27  H   UNL     1      16.024  48.321  20.693  1.00  0.00     0.170 HD
BRANCH  26  28
ATOM     28  C   UNL     1      17.503  47.793  19.419  1.00  0.00     0.227 A 
ATOM     29  N   UNL     1      18.009  46.928  20.322  1.00  0.00    -0.213 NA
ATOM     30  N   UNL     1      18.092  48.194  18.273  1.00  0.00    -0.221 NA
ATOM     31  C   UNL     1      19.227  46.431  20.020  1.00  0.00     0.077 A 
ATOM     32  C   UNL     1      19.307  47.658  18.034  1.00  0.00     0.117 A 
ATOM     33  C   UNL     1      19.929  46.763  18.880  1.00  0.00     0.049 A 
BRANCH  31  34
ATOM     34  C   UNL     1      19.766  45.504  20.986  1.00  0.00     0.019 A 
ATOM     35  C   UNL     1      18.934  44.665  21.719  1.00  0.00     0.013 A 
ATOM     36  C   UNL     1      21.131  45.422  21.214  1.00  0.00     0.121 A 
ATOM     37  C   UNL     1      19.483  43.782  22.643  1.00  0.00     0.021 A 
ATOM     38  N   UNL     1      21.701  44.578  22.103  1.00  0.00    -0.264 NA
ATOM     39  C   UNL     1      20.860  43.778  22.795  1.00  0.00     0.111 A 
ENDBRANCH  31  34
ENDBRANCH  26  28
ENDBRANCH   2  26
TORSDOF 7
ENDMDL
