REMARK SMILES Cc1ccc(NC(=O)c2ccc(CN3CCN(C)CC3)cc2)cc1Nc1nccc(-c2cccnc2)n1
REMARK SMILES IDX 5 1 24 2 23 3 2 4 4 5 3 6 1 7 6 8 8 9 7 10 9 12 10 13 22 14
REMARK SMILES IDX 11 15 21 16 12 17 13 18 14 19 15 20 20 21 16 22 19 23 17 24
REMARK SMILES IDX 18 25 25 26 26 28 37 29 27 30 30 31 28 32 29 33 31 34 32 35
REMARK SMILES IDX 36 36 33 37 35 38 34 39
REMARK H PARENT 6 11 25 27
REMARK Flexibility Score: inf
ROOT
ATOM      1  C   UNL     1      16.818  53.161  13.965  1.00  0.00     0.043 A 
ATOM      2  C   UNL     1      17.245  54.869  12.337  1.00  0.00     0.046 A 
ATOM      3  C   UNL     1      16.544  54.419  13.456  1.00  0.00     0.052 A 
ATOM      4  C   UNL     1      18.209  54.053  11.744  1.00  0.00    -0.027 A 
ATOM      5  C   UNL     1      17.771  52.339  13.389  1.00  0.00     0.026 A 
ATOM      6  C   UNL     1      18.472  52.788  12.270  1.00  0.00     0.008 A 
ATOM      7  C   UNL     1      18.974  54.509  10.544  1.00  0.00     0.046 C 
ENDROOT
BRANCH   1   8
ATOM      8  N   UNL     1      16.107  52.704  15.101  1.00  0.00    -0.322 N 
ATOM      9  O   UNL     1      14.682  54.506  15.583  1.00  0.00    -0.269 OA
ATOM     10  C   UNL     1      15.111  53.368  15.832  1.00  0.00     0.255 C 
ATOM     11  H   UNL     1      16.349  51.756  15.373  1.00  0.00     0.170 HD
BRANCH  10  12
ATOM     12  C   UNL     1      14.579  52.648  16.979  1.00  0.00     0.040 A 
ATOM     13  C   UNL     1      15.368  51.703  17.636  1.00  0.00     0.014 A 
ATOM     14  C   UNL     1      13.281  52.900  17.420  1.00  0.00     0.014 A 
ATOM     15  C   UNL     1      14.858  51.012  18.735  1.00  0.00     0.006 A 
ATOM     16  C   UNL     1      12.771  52.209  18.519  1.00  0.00     0.006 A 
ATOM     17  C   UNL     1      13.565  51.271  19.165  1.00  0.00    -0.034 A 
BRANCH  17  18
ATOM     18  C   UNL     1      13.014  50.526  20.352  1.00  0.00     0.120 C 
BRANCH  18  19
ATOM     19  N   UNL     1      13.311  49.096  20.282  1.00  0.00    -0.297 NA
ATOM     20  C   UNL     1      12.726  48.500  19.075  1.00  0.00     0.100 C 
ATOM     21  C   UNL     1      12.825  48.404  21.482  1.00  0.00     0.100 C 
ATOM     22  C   UNL     1      13.037  47.001  19.002  1.00  0.00     0.099 C 
ATOM     23  C   UNL     1      13.134  46.904  21.409  1.00  0.00     0.099 C 
ATOM     24  N   UNL     1      12.551  46.308  20.201  1.00  0.00    -0.304 NA
ATOM     25  C   UNL     1      12.850  44.879  20.132  1.00  0.00     0.105 C 
ENDBRANCH  18  19
ENDBRANCH  17  18
ENDBRANCH  10  12
ENDBRANCH   1   8
BRANCH   2  26
ATOM     26  N   UNL     1      16.967  56.153  11.818  1.00  0.00    -0.324 N 
ATOM     27  H   UNL     1      17.719  56.568  11.277  1.00  0.00     0.170 HD
BRANCH  26  28
ATOM     28  C   UNL     1      15.801  56.939  11.799  1.00  0.00     0.227 A 
ATOM     29  N   UNL     1      14.703  56.410  12.377  1.00  0.00    -0.213 NA
ATOM     30  N   UNL     1      15.893  58.146  11.204  1.00  0.00    -0.221 NA
ATOM     31  C   UNL     1      13.603  57.191  12.340  1.00  0.00     0.077 A 
ATOM     32  C   UNL     1      14.757  58.874  11.203  1.00  0.00     0.117 A 
ATOM     33  C   UNL     1      13.571  58.443  11.761  1.00  0.00     0.049 A 
BRANCH  31  34
ATOM     34  C   UNL     1      12.429  56.625  12.960  1.00  0.00     0.019 A 
ATOM     35  C   UNL     1      12.223  55.250  12.986  1.00  0.00     0.013 A 
ATOM     36  C   UNL     1      11.470  57.435  13.548  1.00  0.00     0.121 A 
ATOM     37  C   UNL     1      11.082  54.734  13.590  1.00  0.00     0.021 A 
ATOM     38  N   UNL     1      10.349  56.970  14.144  1.00  0.00    -0.264 NA
ATOM     39  C   UNL     1      10.184  55.629  14.150  1.00  0.00     0.111 A 
ENDBRANCH  31  34
ENDBRANCH  26  28
ENDBRANCH   2  26
TORSDOF 7
