MODEL 1
REMARK VINA RESULT:    -5.560      0.000      0.000
REMARK INTER + INTRA:          -7.842
REMARK INTER:                  -8.325
REMARK INTRA:                   0.483
REMARK UNBOUND:                -0.007
REMARK SMILES C=CCO[C]([O-])C1=CS[C@H]2[C@@H]([C@@H](C)O[C](C)[O-])C(=O)N12
REMARK SMILES IDX 9 1 19 2 20 3 11 4 10 5 18 6 7 7 8 8 12 9 13 10 14 11 15 12
REMARK SMILES IDX 17 13 16 14 5 15 6 16 4 17 3 18 2 19 1 20
REMARK H PARENT
REMARK Flexibility Score: inf
ROOT
ATOM      1  S   UNL     1       2.917  -5.648   1.021  1.00  0.00    -0.106 SA
ATOM      2  O   UNL     1       1.542  -1.429   1.844  1.00  0.00    -0.274 OA
ATOM      3  N   UNL     1       1.160  -3.729   1.467  1.00  0.00    -0.300 N 
ATOM      4  C   UNL     1       2.643  -3.481   2.905  1.00  0.00     0.095 C 
ATOM      5  C   UNL     1       1.949  -4.692   2.258  1.00  0.00     0.101 C 
ATOM      6  C   UNL     1       1.694  -2.612   2.044  1.00  0.00     0.236 C 
ATOM      7  C   UNL     1       1.161  -3.994   0.125  1.00  0.00     0.046 C 
ATOM      8  C   UNL     1       1.978  -4.973  -0.282  1.00  0.00    -0.006 C 
ENDROOT
BRANCH   4   9
ATOM      9  C   UNL     1       4.106  -3.328   2.567  1.00  0.00     0.068 C 
ATOM     10  C   UNL     1       4.389  -1.967   1.940  1.00  0.00    -0.038 C 
BRANCH   9  11
ATOM     11  O   UNL     1       4.886  -3.466   3.755  1.00  0.00    -0.387 OA
BRANCH  11  12
ATOM     12  C   UNL     1       5.155  -4.747   4.138  1.00  0.00     0.005 C 
ATOM     13  O   UNL     1       5.356  -5.700   3.395  1.00  0.00    -0.828 OA
ATOM     14  C   UNL     1       5.176  -4.833   5.634  1.00  0.00    -0.050 C 
ENDBRANCH  11  12
ENDBRANCH   9  11
ENDBRANCH   4   9
BRANCH   7  15
ATOM     15  C   UNL     1       0.375  -3.195  -0.805  1.00  0.00     0.057 C 
ATOM     16  O   UNL     1      -0.771  -2.819  -0.586  1.00  0.00    -0.822 OA
BRANCH  15  17
ATOM     17  O   UNL     1       1.118  -2.951  -1.917  1.00  0.00    -0.380 OA
BRANCH  17  18
ATOM     18  C   UNL     1       0.382  -2.585  -3.088  1.00  0.00     0.064 C 
BRANCH  18  19
ATOM     19  C   UNL     1       1.341  -2.124  -4.135  1.00  0.00    -0.066 C 
ATOM     20  C   UNL     1       1.634  -0.839  -4.366  1.00  0.00    -0.101 C 
ENDBRANCH  18  19
ENDBRANCH  17  18
ENDBRANCH  15  17
ENDBRANCH   7  15
TORSDOF 7
ENDMDL
MODEL 2
REMARK VINA RESULT:    -5.374      4.271      5.954
REMARK INTER + INTRA:          -7.580
REMARK INTER:                  -7.688
REMARK INTRA:                   0.108
REMARK UNBOUND:                -0.007
REMARK SMILES C=CCO[C]([O-])C1=CS[C@H]2[C@@H]([C@@H](C)O[C](C)[O-])C(=O)N12
REMARK SMILES IDX 9 1 19 2 20 3 11 4 10 5 18 6 7 7 8 8 12 9 13 10 14 11 15 12
REMARK SMILES IDX 17 13 16 14 5 15 6 16 4 17 3 18 2 19 1 20
REMARK H PARENT
REMARK Flexibility Score: inf
ROOT
ATOM      1  S   UNL     1       5.869  -6.330   5.818  1.00  0.00    -0.106 SA
ATOM      2  O   UNL     1       4.083  -6.168   1.676  1.00  0.00    -0.274 OA
ATOM      3  N   UNL     1       5.488  -5.357   3.393  1.00  0.00    -0.300 N 
ATOM      4  C   UNL     1       5.781  -7.402   3.141  1.00  0.00     0.095 C 
ATOM      5  C   UNL     1       6.388  -6.322   4.054  1.00  0.00     0.101 C 
ATOM      6  C   UNL     1       4.951  -6.254   2.515  1.00  0.00     0.236 C 
ATOM      7  C   UNL     1       4.768  -4.593   4.271  1.00  0.00     0.046 C 
ATOM      8  C   UNL     1       4.870  -4.926   5.564  1.00  0.00    -0.006 C 
ENDROOT
BRANCH   4   9
ATOM      9  C   UNL     1       4.958  -8.449   3.852  1.00  0.00     0.068 C 
ATOM     10  C   UNL     1       3.868  -9.006   2.943  1.00  0.00    -0.038 C 
BRANCH   9  11
ATOM     11  O   UNL     1       5.807  -9.518   4.270  1.00  0.00    -0.387 OA
BRANCH  11  12
ATOM     12  C   UNL     1       5.563 -10.012   5.518  1.00  0.00     0.005 C 
ATOM     13  O   UNL     1       4.509 -10.490   5.915  1.00  0.00    -0.828 OA
ATOM     14  C   UNL     1       6.796  -9.887   6.360  1.00  0.00    -0.050 C 
ENDBRANCH  11  12
ENDBRANCH   9  11
ENDBRANCH   4   9
BRANCH   7  15
ATOM     15  C   UNL     1       3.884  -3.535   3.804  1.00  0.00     0.057 C 
ATOM     16  O   UNL     1       2.677  -3.672   3.644  1.00  0.00    -0.822 OA
BRANCH  15  17
ATOM     17  O   UNL     1       4.616  -2.409   3.586  1.00  0.00    -0.380 OA
BRANCH  17  18
ATOM     18  C   UNL     1       4.472  -1.815   2.292  1.00  0.00     0.064 C 
BRANCH  18  19
ATOM     19  C   UNL     1       3.579  -0.625   2.407  1.00  0.00    -0.066 C 
ATOM     20  C   UNL     1       3.627   0.251   3.416  1.00  0.00    -0.101 C 
ENDBRANCH  18  19
ENDBRANCH  17  18
ENDBRANCH  15  17
ENDBRANCH   7  15
TORSDOF 7
ENDMDL
MODEL 3
REMARK VINA RESULT:    -5.070      3.066      4.623
REMARK INTER + INTRA:          -7.151
REMARK INTER:                  -7.578
REMARK INTRA:                   0.426
REMARK UNBOUND:                -0.007
REMARK SMILES C=CCO[C]([O-])C1=CS[C@H]2[C@@H]([C@@H](C)O[C](C)[O-])C(=O)N12
REMARK SMILES IDX 9 1 19 2 20 3 11 4 10 5 18 6 7 7 8 8 12 9 13 10 14 11 15 12
REMARK SMILES IDX 17 13 16 14 5 15 6 16 4 17 3 18 2 19 1 20
REMARK H PARENT
REMARK Flexibility Score: inf
ROOT
ATOM      1  S   UNL     1       1.509  -4.943  -3.278  1.00  0.00    -0.106 SA
ATOM      2  O   UNL     1      -1.904  -2.401  -1.776  1.00  0.00    -0.274 OA
ATOM      3  N   UNL     1      -0.934  -3.943  -3.279  1.00  0.00    -0.300 N 
ATOM      4  C   UNL     1      -0.567  -4.535  -1.318  1.00  0.00     0.095 C 
ATOM      5  C   UNL     1      -0.231  -5.107  -2.706  1.00  0.00     0.101 C 
ATOM      6  C   UNL     1      -1.316  -3.414  -2.079  1.00  0.00     0.236 C 
ATOM      7  C   UNL     1      -0.209  -3.283  -4.233  1.00  0.00     0.046 C 
ATOM      8  C   UNL     1       1.058  -3.685  -4.395  1.00  0.00    -0.006 C 
ENDROOT
BRANCH   4   9
ATOM      9  C   UNL     1       0.622  -4.058  -0.519  1.00  0.00     0.068 C 
ATOM     10  C   UNL     1       0.183  -3.393   0.781  1.00  0.00    -0.038 C 
BRANCH   9  11
ATOM     11  O   UNL     1       1.465  -5.169  -0.212  1.00  0.00    -0.387 OA
BRANCH  11  12
ATOM     12  C   UNL     1       2.528  -4.896   0.598  1.00  0.00     0.005 C 
ATOM     13  O   UNL     1       3.167  -3.852   0.628  1.00  0.00    -0.828 OA
ATOM     14  C   UNL     1       2.814  -6.080   1.471  1.00  0.00    -0.050 C 
ENDBRANCH  11  12
ENDBRANCH   9  11
ENDBRANCH   4   9
BRANCH   7  15
ATOM     15  C   UNL     1      -0.770  -2.155  -4.963  1.00  0.00     0.057 C 
ATOM     16  O   UNL     1      -1.971  -1.969  -5.117  1.00  0.00    -0.822 OA
BRANCH  15  17
ATOM     17  O   UNL     1       0.245  -1.376  -5.423  1.00  0.00    -0.380 OA
BRANCH  17  18
ATOM     18  C   UNL     1       0.083  -0.865  -6.750  1.00  0.00     0.064 C 
BRANCH  18  19
ATOM     19  C   UNL     1       1.356  -0.210  -7.172  1.00  0.00    -0.066 C 
ATOM     20  C   UNL     1       2.569  -0.606  -6.770  1.00  0.00    -0.101 C 
ENDBRANCH  18  19
ENDBRANCH  17  18
ENDBRANCH  15  17
ENDBRANCH   7  15
TORSDOF 7
ENDMDL
MODEL 4
REMARK VINA RESULT:    -4.965      3.465      8.066
REMARK INTER + INTRA:          -7.004
REMARK INTER:                  -7.219
REMARK INTRA:                   0.215
REMARK UNBOUND:                -0.007
REMARK SMILES C=CCO[C]([O-])C1=CS[C@H]2[C@@H]([C@@H](C)O[C](C)[O-])C(=O)N12
REMARK SMILES IDX 9 1 19 2 20 3 11 4 10 5 18 6 7 7 8 8 12 9 13 10 14 11 15 12
REMARK SMILES IDX 17 13 16 14 5 15 6 16 4 17 3 18 2 19 1 20
REMARK H PARENT
REMARK Flexibility Score: inf
ROOT
ATOM      1  S   UNL     1       2.021  -3.438  -5.291  1.00  0.00    -0.106 SA
ATOM      2  O   UNL     1      -1.512  -2.266  -2.739  1.00  0.00    -0.274 OA
ATOM      3  N   UNL     1       0.791  -2.657  -3.090  1.00  0.00    -0.300 N 
ATOM      4  C   UNL     1       0.032  -1.461  -4.615  1.00  0.00     0.095 C 
ATOM      5  C   UNL     1       1.419  -2.032  -4.270  1.00  0.00     0.101 C 
ATOM      6  C   UNL     1      -0.452  -2.133  -3.306  1.00  0.00     0.236 C 
ATOM      7  C   UNL     1       1.069  -3.991  -2.966  1.00  0.00     0.046 C 
ATOM      8  C   UNL     1       1.726  -4.554  -3.987  1.00  0.00    -0.006 C 
ENDROOT
BRANCH   4   9
ATOM      9  C   UNL     1      -0.594  -2.020  -5.870  1.00  0.00     0.068 C 
ATOM     10  C   UNL     1      -2.059  -2.379  -5.644  1.00  0.00    -0.038 C 
BRANCH   9  11
ATOM     11  O   UNL     1      -0.508  -1.051  -6.916  1.00  0.00    -0.387 OA
BRANCH  11  12
ATOM     12  C   UNL     1       0.468  -1.272  -7.844  1.00  0.00     0.005 C 
ATOM     13  O   UNL     1       0.555  -2.240  -8.589  1.00  0.00    -0.828 OA
ATOM     14  C   UNL     1       1.445  -0.136  -7.829  1.00  0.00    -0.050 C 
ENDBRANCH  11  12
ENDBRANCH   9  11
ENDBRANCH   4   9
BRANCH   7  15
ATOM     15  C   UNL     1       0.597  -4.758  -1.821  1.00  0.00     0.057 C 
ATOM     16  O   UNL     1      -0.030  -5.806  -1.911  1.00  0.00    -0.822 OA
BRANCH  15  17
ATOM     17  O   UNL     1       0.968  -4.120  -0.678  1.00  0.00    -0.380 OA
BRANCH  17  18
ATOM     18  C   UNL     1      -0.103  -3.671   0.157  1.00  0.00     0.064 C 
BRANCH  18  19
ATOM     19  C   UNL     1       0.454  -3.288   1.488  1.00  0.00    -0.066 C 
ATOM     20  C   UNL     1       1.628  -3.721   1.959  1.00  0.00    -0.101 C 
ENDBRANCH  18  19
ENDBRANCH  17  18
ENDBRANCH  15  17
ENDBRANCH   7  15
TORSDOF 7
ENDMDL
MODEL 5
REMARK VINA RESULT:    -4.918      2.374      3.532
REMARK INTER + INTRA:          -6.938
REMARK INTER:                  -7.312
REMARK INTRA:                   0.375
REMARK UNBOUND:                -0.007
REMARK SMILES C=CCO[C]([O-])C1=CS[C@H]2[C@@H]([C@@H](C)O[C](C)[O-])C(=O)N12
REMARK SMILES IDX 9 1 19 2 20 3 11 4 10 5 18 6 7 7 8 8 12 9 13 10 14 11 15 12
REMARK SMILES IDX 17 13 16 14 5 15 6 16 4 17 3 18 2 19 1 20
REMARK H PARENT
REMARK Flexibility Score: inf
ROOT
ATOM      1  S   UNL     1       4.140  -4.306   3.110  1.00  0.00    -0.106 SA
ATOM      2  O   UNL     1       1.533  -5.906  -0.209  1.00  0.00    -0.274 OA
ATOM      3  N   UNL     1       2.817  -4.216   0.827  1.00  0.00    -0.300 N 
ATOM      4  C   UNL     1       3.888  -5.999   0.788  1.00  0.00     0.095 C 
ATOM      5  C   UNL     1       4.172  -4.573   1.291  1.00  0.00     0.101 C 
ATOM      6  C   UNL     1       2.525  -5.444   0.307  1.00  0.00     0.236 C 
ATOM      7  C   UNL     1       2.071  -3.566   1.772  1.00  0.00     0.046 C 
ATOM      8  C   UNL     1       2.607  -3.485   2.995  1.00  0.00    -0.006 C 
ENDROOT
BRANCH   4   9
ATOM      9  C   UNL     1       3.787  -7.049   1.870  1.00  0.00     0.068 C 
ATOM     10  C   UNL     1       2.907  -8.213   1.429  1.00  0.00    -0.038 C 
BRANCH   9  11
ATOM     11  O   UNL     1       5.092  -7.541   2.177  1.00  0.00    -0.387 OA
BRANCH  11  12
ATOM     12  C   UNL     1       5.309  -7.857   3.487  1.00  0.00     0.005 C 
ATOM     13  O   UNL     1       4.653  -8.639   4.163  1.00  0.00    -0.828 OA
ATOM     14  C   UNL     1       6.494  -7.097   3.999  1.00  0.00    -0.050 C 
ENDBRANCH  11  12
ENDBRANCH   9  11
ENDBRANCH   4   9
BRANCH   7  15
ATOM     15  C   UNL     1       0.736  -3.069   1.470  1.00  0.00     0.057 C 
ATOM     16  O   UNL     1      -0.095  -2.778   2.321  1.00  0.00    -0.822 OA
BRANCH  15  17
ATOM     17  O   UNL     1       0.588  -2.990   0.120  1.00  0.00    -0.380 OA
BRANCH  17  18
ATOM     18  C   UNL     1      -0.679  -3.415  -0.392  1.00  0.00     0.064 C 
BRANCH  18  19
ATOM     19  C   UNL     1      -0.585  -3.525  -1.878  1.00  0.00    -0.066 C 
ATOM     20  C   UNL     1      -0.998  -4.588  -2.576  1.00  0.00    -0.101 C 
ENDBRANCH  18  19
ENDBRANCH  17  18
ENDBRANCH  15  17
ENDBRANCH   7  15
TORSDOF 7
ENDMDL
