REMARK SMILES CNC(=O)c1cc(Oc2ccc(NC(=O)Nc3ccc(Cl)c(C(F)(F)F)c3)cc2)ccn1
REMARK SMILES IDX 12 1 9 2 11 3 28 4 10 5 29 6 13 7 16 8 14 9 15 11 17 13
REMARK SMILES IDX 21 14 20 15 22 16 19 17 27 18 18 19 23 20 24 21 25 22 26 23
REMARK SMILES IDX 8 24 7 25 6 26 30 27 5 28 31 29 32 30 3 31 4 32 2 33 1 34
REMARK H PARENT 16 10 13 12 2 35
REMARK Flexibility Score: inf
ROOT
ATOM      1  C   UNL     1      90.129   1.742   9.442  1.00  0.00     0.043 A 
ATOM      2  C   UNL     1      89.325   0.646   7.029  1.00  0.00     0.127 A 
ATOM      3  C   UNL     1      89.416   0.555   9.441  1.00  0.00     0.030 A 
ATOM      4  C   UNL     1      90.450   2.392   8.262  1.00  0.00     0.030 A 
ATOM      5  C   UNL     1      89.010   0.003   8.226  1.00  0.00     0.049 A 
ATOM      6  C   UNL     1      90.045   1.841   7.046  1.00  0.00     0.049 A 
ENDROOT
BRANCH   1   7
ATOM      7  N   UNL     1      90.540   2.302  10.675  1.00  0.00    -0.308 N 
ATOM      8  N   UNL     1      91.268   3.770  12.303  1.00  0.00    -0.308 N 
ATOM      9  C   UNL     1      90.935   3.625  10.935  1.00  0.00     0.323 C 
ATOM     10  H   UNL     1      91.179   2.932  12.874  1.00  0.00     0.171 HD
ATOM     11  O   UNL     1      90.985   4.526  10.104  1.00  0.00    -0.248 OA
ATOM     12  H   UNL     1      90.548   1.661  11.464  1.00  0.00     0.171 HD
BRANCH   8  13
ATOM     13  C   UNL     1      91.706   4.910  12.976  1.00  0.00     0.043 A 
ATOM     14  Cl  UNL     1      93.108   8.625  15.126  1.00  0.00    -0.084 Cl
ATOM     15  C   UNL     1      92.582   7.191  14.322  1.00  0.00     0.053 A 
ATOM     16  C   UNL     1      92.900   5.926  14.815  1.00  0.00     0.076 A 
ATOM     17  C   UNL     1      91.827   7.316  13.156  1.00  0.00     0.023 A 
ATOM     18  C   UNL     1      92.462   4.785  14.143  1.00  0.00     0.040 A 
ATOM     19  C   UNL     1      91.388   6.176  12.483  1.00  0.00     0.028 A 
BRANCH  16  20
ATOM     20  C   UNL     1      93.709   5.749  16.059  1.00  0.00     0.417 C 
ATOM     21  F   UNL     1      93.824   4.448  16.454  1.00  0.00    -0.166 F 
ATOM     22  F   UNL     1      94.990   6.204  15.944  1.00  0.00    -0.166 F 
ATOM     23  F   UNL     1      93.177   6.413  17.126  1.00  0.00    -0.166 F 
ENDBRANCH  16  20
ENDBRANCH   8  13
ENDBRANCH   1   7
BRANCH   2  24
ATOM     24  O   UNL     1      88.929   0.108   5.843  1.00  0.00    -0.457 OA
BRANCH  24  25
ATOM     25  C   UNL     1      89.907  -0.414   5.014  1.00  0.00     0.131 A 
ATOM     26  C   UNL     1      90.618  -1.522   5.424  1.00  0.00     0.081 A 
ATOM     27  C   UNL     1      90.147   0.184   3.795  1.00  0.00     0.067 A 
ATOM     28  C   UNL     1      91.585  -2.006   4.558  1.00  0.00     0.131 A 
ATOM     29  C   UNL     1      91.135  -0.377   3.002  1.00  0.00     0.116 A 
ATOM     30  N   UNL     1      91.863  -1.461   3.354  1.00  0.00    -0.251 NA
BRANCH  28  31
ATOM     31  C   UNL     1      92.375  -3.170   4.921  1.00  0.00     0.269 C 
ATOM     32  O   UNL     1      92.174  -3.762   5.998  1.00  0.00    -0.268 OA
ATOM     33  N   UNL     1      93.341  -3.596   4.001  1.00  0.00    -0.354 N 
ATOM     34  C   UNL     1      94.188  -4.748   4.206  1.00  0.00     0.143 C 
ATOM     35  H   UNL     1      93.437  -3.090   3.124  1.00  0.00     0.163 HD
ENDBRANCH  28  31
ENDBRANCH  24  25
ENDBRANCH   2  24
TORSDOF 6
