MODEL 1
REMARK VINA RESULT:    -7.537      0.000      0.000
REMARK INTER + INTRA:         -10.681
REMARK INTER:                  -9.668
REMARK INTRA:                  -1.014
REMARK UNBOUND:                -0.501
REMARK SMILES CNC(=O)c1cc(Oc2ccc(NC(=O)Nc3ccc(Cl)c(C(F)(F)F)c3)cc2)ccn1
REMARK SMILES IDX 12 1 9 2 11 3 28 4 10 5 29 6 13 7 16 8 14 9 15 11 17 13
REMARK SMILES IDX 21 14 20 15 22 16 19 17 27 18 18 19 23 20 24 21 25 22 26 23
REMARK SMILES IDX 8 24 7 25 6 26 30 27 5 28 31 29 32 30 3 31 4 32 2 33 1 34
REMARK H PARENT 16 10 13 12 2 35
REMARK Flexibility Score: inf
ROOT
ATOM      1  C   UNL     1      96.704 -11.053  24.123  1.00  0.00     0.043 A 
ATOM      2  C   UNL     1      98.918 -10.082  25.474  1.00  0.00     0.127 A 
ATOM      3  C   UNL     1      97.912 -11.719  24.010  1.00  0.00     0.030 A 
ATOM      4  C   UNL     1      96.578  -9.912  24.898  1.00  0.00     0.030 A 
ATOM      5  C   UNL     1      99.028 -11.230  24.690  1.00  0.00     0.049 A 
ATOM      6  C   UNL     1      97.693  -9.422  25.578  1.00  0.00     0.049 A 
ENDROOT
BRANCH   1   7
ATOM      7  N   UNL     1      95.572 -11.549  23.433  1.00  0.00    -0.308 N 
ATOM      8  N   UNL     1      93.691 -12.758  22.852  1.00  0.00    -0.308 N 
ATOM      9  C   UNL     1      94.694 -12.570  23.834  1.00  0.00     0.323 C 
ATOM     10  H   UNL     1      93.750 -12.155  22.035  1.00  0.00     0.171 HD
ATOM     11  O   UNL     1      94.778 -13.207  24.878  1.00  0.00    -0.248 OA
ATOM     12  H   UNL     1      95.378 -11.108  22.537  1.00  0.00     0.171 HD
BRANCH   8  13
ATOM     13  C   UNL     1      92.631 -13.664  22.854  1.00  0.00     0.043 A 
ATOM     14  Cl  UNL     1      89.222 -16.625  22.843  1.00  0.00    -0.084 Cl
ATOM     15  C   UNL     1      90.511 -15.477  22.859  1.00  0.00     0.053 A 
ATOM     16  C   UNL     1      90.326 -14.187  23.355  1.00  0.00     0.076 A 
ATOM     17  C   UNL     1      91.755 -15.861  22.360  1.00  0.00     0.023 A 
ATOM     18  C   UNL     1      91.385 -13.280  23.353  1.00  0.00     0.040 A 
ATOM     19  C   UNL     1      92.816 -14.955  22.358  1.00  0.00     0.028 A 
BRANCH  16  20
ATOM     20  C   UNL     1      89.007 -13.736  23.896  1.00  0.00     0.417 C 
ATOM     21  F   UNL     1      88.024 -13.675  22.953  1.00  0.00    -0.166 F 
ATOM     22  F   UNL     1      88.515 -14.549  24.876  1.00  0.00    -0.166 F 
ATOM     23  F   UNL     1      89.068 -12.490  24.448  1.00  0.00    -0.166 F 
ENDBRANCH  16  20
ENDBRANCH   8  13
ENDBRANCH   1   7
BRANCH   2  24
ATOM     24  O   UNL     1     100.007  -9.604  26.137  1.00  0.00    -0.457 OA
BRANCH  24  25
ATOM     25  C   UNL     1     100.463  -8.342  25.799  1.00  0.00     0.131 A 
ATOM     26  C   UNL     1     100.656  -8.027  24.470  1.00  0.00     0.081 A 
ATOM     27  C   UNL     1     100.714  -7.426  26.798  1.00  0.00     0.067 A 
ATOM     28  C   UNL     1     101.113  -6.750  24.185  1.00  0.00     0.131 A 
ATOM     29  C   UNL     1     101.168  -6.176  26.409  1.00  0.00     0.116 A 
ATOM     30  N   UNL     1     101.374  -5.814  25.122  1.00  0.00    -0.251 NA
BRANCH  28  31
ATOM     31  C   UNL     1     101.339  -6.346  22.808  1.00  0.00     0.269 C 
ATOM     32  O   UNL     1     100.742  -5.364  22.330  1.00  0.00    -0.268 OA
ATOM     33  N   UNL     1     102.266  -7.092  22.070  1.00  0.00    -0.354 N 
ATOM     34  C   UNL     1     102.617  -6.801  20.699  1.00  0.00     0.143 C 
ATOM     35  H   UNL     1     102.745  -7.864  22.525  1.00  0.00     0.163 HD
ENDBRANCH  28  31
ENDBRANCH  24  25
ENDBRANCH   2  24
TORSDOF 6
ENDMDL
MODEL 2
REMARK VINA RESULT:    -7.341      1.398      2.354
REMARK INTER + INTRA:         -10.417
REMARK INTER:                  -9.471
REMARK INTRA:                  -0.946
REMARK UNBOUND:                -0.501
REMARK SMILES CNC(=O)c1cc(Oc2ccc(NC(=O)Nc3ccc(Cl)c(C(F)(F)F)c3)cc2)ccn1
REMARK SMILES IDX 12 1 9 2 11 3 28 4 10 5 29 6 13 7 16 8 14 9 15 11 17 13
REMARK SMILES IDX 21 14 20 15 22 16 19 17 27 18 18 19 23 20 24 21 25 22 26 23
REMARK SMILES IDX 8 24 7 25 6 26 30 27 5 28 31 29 32 30 3 31 4 32 2 33 1 34
REMARK H PARENT 16 10 13 12 2 35
REMARK Flexibility Score: inf
ROOT
ATOM      1  C   UNL     1      96.689 -11.423  24.264  1.00  0.00     0.043 A 
ATOM      2  C   UNL     1      98.866 -10.680  25.807  1.00  0.00     0.127 A 
ATOM      3  C   UNL     1      96.561 -10.370  25.154  1.00  0.00     0.030 A 
ATOM      4  C   UNL     1      97.883 -12.112  24.127  1.00  0.00     0.030 A 
ATOM      5  C   UNL     1      97.657  -9.996  25.932  1.00  0.00     0.049 A 
ATOM      6  C   UNL     1      98.979 -11.738  24.904  1.00  0.00     0.049 A 
ENDROOT
BRANCH   1   7
ATOM      7  N   UNL     1      95.577 -11.802  23.475  1.00  0.00    -0.308 N 
ATOM      8  N   UNL     1      93.645 -12.821  22.722  1.00  0.00    -0.308 N 
ATOM      9  C   UNL     1      94.578 -12.740  23.784  1.00  0.00     0.323 C 
ATOM     10  H   UNL     1      93.826 -12.217  21.924  1.00  0.00     0.171 HD
ATOM     11  O   UNL     1      94.517 -13.396  24.819  1.00  0.00    -0.248 OA
ATOM     12  H   UNL     1      95.499 -11.334  22.576  1.00  0.00     0.171 HD
BRANCH   8  13
ATOM     13  C   UNL     1      92.509 -13.624  22.621  1.00  0.00     0.043 A 
ATOM     14  Cl  UNL     1      88.851 -16.248  22.273  1.00  0.00    -0.084 Cl
ATOM     15  C   UNL     1      90.237 -15.229  22.419  1.00  0.00     0.053 A 
ATOM     16  C   UNL     1      90.166 -14.000  23.075  1.00  0.00     0.076 A 
ATOM     17  C   UNL     1      91.443 -15.655  21.864  1.00  0.00     0.023 A 
ATOM     18  C   UNL     1      91.302 -13.197  23.177  1.00  0.00     0.040 A 
ATOM     19  C   UNL     1      92.579 -14.853  21.965  1.00  0.00     0.028 A 
BRANCH  16  20
ATOM     20  C   UNL     1      88.892 -13.506  23.681  1.00  0.00     0.417 C 
ATOM     21  F   UNL     1      88.284 -14.421  24.490  1.00  0.00    -0.166 F 
ATOM     22  F   UNL     1      89.053 -12.394  24.455  1.00  0.00    -0.166 F 
ATOM     23  F   UNL     1      87.962 -13.170  22.741  1.00  0.00    -0.166 F 
ENDBRANCH  16  20
ENDBRANCH   8  13
ENDBRANCH   1   7
BRANCH   2  24
ATOM     24  O   UNL     1      99.935 -10.315  26.566  1.00  0.00    -0.457 OA
BRANCH  24  25
ATOM     25  C   UNL     1     100.822  -9.398  26.029  1.00  0.00     0.131 A 
ATOM     26  C   UNL     1     100.591  -8.050  26.211  1.00  0.00     0.081 A 
ATOM     27  C   UNL     1     101.918  -9.851  25.327  1.00  0.00     0.067 A 
ATOM     28  C   UNL     1     101.509  -7.173  25.656  1.00  0.00     0.131 A 
ATOM     29  C   UNL     1     102.777  -8.893  24.811  1.00  0.00     0.116 A 
ATOM     30  N   UNL     1     102.599  -7.561  24.959  1.00  0.00    -0.251 NA
BRANCH  28  31
ATOM     31  C   UNL     1     101.333  -5.739  25.806  1.00  0.00     0.269 C 
ATOM     32  O   UNL     1     101.585  -4.968  24.862  1.00  0.00    -0.268 OA
ATOM     33  N   UNL     1     100.850  -5.282  27.038  1.00  0.00    -0.354 N 
ATOM     34  C   UNL     1     100.600  -3.890  27.333  1.00  0.00     0.143 C 
ATOM     35  H   UNL     1     100.632  -5.963  27.760  1.00  0.00     0.163 HD
ENDBRANCH  28  31
ENDBRANCH  24  25
ENDBRANCH   2  24
TORSDOF 6
ENDMDL
MODEL 3
REMARK VINA RESULT:    -7.328      1.836      2.984
REMARK INTER + INTRA:         -10.399
REMARK INTER:                  -9.372
REMARK INTRA:                  -1.027
REMARK UNBOUND:                -0.501
REMARK SMILES CNC(=O)c1cc(Oc2ccc(NC(=O)Nc3ccc(Cl)c(C(F)(F)F)c3)cc2)ccn1
REMARK SMILES IDX 12 1 9 2 11 3 28 4 10 5 29 6 13 7 16 8 14 9 15 11 17 13
REMARK SMILES IDX 21 14 20 15 22 16 19 17 27 18 18 19 23 20 24 21 25 22 26 23
REMARK SMILES IDX 8 24 7 25 6 26 30 27 5 28 31 29 32 30 3 31 4 32 2 33 1 34
REMARK H PARENT 16 10 13 12 2 35
REMARK Flexibility Score: inf
ROOT
ATOM      1  C   UNL     1      96.886 -11.573  23.354  1.00  0.00     0.043 A 
ATOM      2  C   UNL     1      99.587 -11.369  22.777  1.00  0.00     0.127 A 
ATOM      3  C   UNL     1      97.281 -11.046  22.136  1.00  0.00     0.030 A 
ATOM      4  C   UNL     1      97.814 -12.001  24.290  1.00  0.00     0.030 A 
ATOM      5  C   UNL     1      98.641 -10.943  21.844  1.00  0.00     0.049 A 
ATOM      6  C   UNL     1      99.174 -11.898  23.999  1.00  0.00     0.049 A 
ENDROOT
BRANCH   1   7
ATOM      7  N   UNL     1      95.506 -11.677  23.649  1.00  0.00    -0.308 N 
ATOM      8  N   UNL     1      93.320 -12.415  23.768  1.00  0.00    -0.308 N 
ATOM      9  C   UNL     1      94.614 -12.691  23.264  1.00  0.00     0.323 C 
ATOM     10  H   UNL     1      93.228 -11.559  24.311  1.00  0.00     0.171 HD
ATOM     11  O   UNL     1      94.906 -13.674  22.590  1.00  0.00    -0.248 OA
ATOM     12  H   UNL     1      95.121 -10.920  24.208  1.00  0.00     0.171 HD
BRANCH   8  13
ATOM     13  C   UNL     1      92.150 -13.159  23.618  1.00  0.00     0.043 A 
ATOM     14  Cl  UNL     1      88.375 -15.594  23.163  1.00  0.00    -0.084 Cl
ATOM     15  C   UNL     1      89.811 -14.648  23.320  1.00  0.00     0.053 A 
ATOM     16  C   UNL     1      90.061 -13.567  22.476  1.00  0.00     0.076 A 
ATOM     17  C   UNL     1      90.730 -14.986  24.313  1.00  0.00     0.023 A 
ATOM     18  C   UNL     1      91.231 -12.822  22.625  1.00  0.00     0.040 A 
ATOM     19  C   UNL     1      91.900 -14.241  24.463  1.00  0.00     0.028 A 
BRANCH  16  20
ATOM     20  C   UNL     1      89.103 -13.174  21.398  1.00  0.00     0.417 C 
ATOM     21  F   UNL     1      89.526 -12.112  20.653  1.00  0.00    -0.166 F 
ATOM     22  F   UNL     1      88.859 -14.170  20.498  1.00  0.00    -0.166 F 
ATOM     23  F   UNL     1      87.882 -12.815  21.891  1.00  0.00    -0.166 F 
ENDBRANCH  16  20
ENDBRANCH   8  13
ENDBRANCH   1   7
BRANCH   2  24
ATOM     24  O   UNL     1     100.915 -11.268  22.493  1.00  0.00    -0.457 OA
BRANCH  24  25
ATOM     25  C   UNL     1     101.416 -10.012  22.194  1.00  0.00     0.131 A 
ATOM     26  C   UNL     1     101.139  -8.957  23.037  1.00  0.00     0.081 A 
ATOM     27  C   UNL     1     102.182  -9.845  21.060  1.00  0.00     0.067 A 
ATOM     28  C   UNL     1     101.664  -7.722  22.694  1.00  0.00     0.131 A 
ATOM     29  C   UNL     1     102.661  -8.570  20.805  1.00  0.00     0.116 A 
ATOM     30  N   UNL     1     102.421  -7.500  21.597  1.00  0.00    -0.251 NA
BRANCH  28  31
ATOM     31  C   UNL     1     101.416  -6.563  23.533  1.00  0.00     0.269 C 
ATOM     32  O   UNL     1     101.007  -5.497  23.037  1.00  0.00    -0.268 OA
ATOM     33  N   UNL     1     101.634  -6.714  24.908  1.00  0.00    -0.354 N 
ATOM     34  C   UNL     1     101.409  -5.663  25.875  1.00  0.00     0.143 C 
ATOM     35  H   UNL     1     101.938  -7.619  25.258  1.00  0.00     0.163 HD
ENDBRANCH  28  31
ENDBRANCH  24  25
ENDBRANCH   2  24
TORSDOF 6
ENDMDL
MODEL 4
REMARK VINA RESULT:    -7.172     19.180     22.182
REMARK INTER + INTRA:         -10.188
REMARK INTER:                 -10.143
REMARK INTRA:                  -0.045
REMARK UNBOUND:                -0.501
REMARK SMILES CNC(=O)c1cc(Oc2ccc(NC(=O)Nc3ccc(Cl)c(C(F)(F)F)c3)cc2)ccn1
REMARK SMILES IDX 12 1 9 2 11 3 28 4 10 5 29 6 13 7 16 8 14 9 15 11 17 13
REMARK SMILES IDX 21 14 20 15 22 16 19 17 27 18 18 19 23 20 24 21 25 22 26 23
REMARK SMILES IDX 8 24 7 25 6 26 30 27 5 28 31 29 32 30 3 31 4 32 2 33 1 34
REMARK H PARENT 16 10 13 12 2 35
REMARK Flexibility Score: inf
ROOT
ATOM      1  C   UNL     1      95.584   9.902  20.085  1.00  0.00     0.043 A 
ATOM      2  C   UNL     1      96.559  10.069  17.498  1.00  0.00     0.127 A 
ATOM      3  C   UNL     1      96.851  10.419  19.870  1.00  0.00     0.030 A 
ATOM      4  C   UNL     1      94.794   9.468  19.034  1.00  0.00     0.030 A 
ATOM      5  C   UNL     1      97.342  10.503  18.567  1.00  0.00     0.049 A 
ATOM      6  C   UNL     1      95.284   9.552  17.731  1.00  0.00     0.049 A 
ENDROOT
BRANCH   1   7
ATOM      7  N   UNL     1      95.087   9.817  21.407  1.00  0.00    -0.308 N 
ATOM      8  N   UNL     1      93.838   9.255  23.268  1.00  0.00    -0.308 N 
ATOM      9  C   UNL     1      94.001   9.058  21.875  1.00  0.00     0.323 C 
ATOM     10  H   UNL     1      94.499   9.891  23.708  1.00  0.00     0.171 HD
ATOM     11  O   UNL     1      93.296   8.330  21.185  1.00  0.00    -0.248 OA
ATOM     12  H   UNL     1      95.582  10.376  22.097  1.00  0.00     0.171 HD
BRANCH   8  13
ATOM     13  C   UNL     1      92.886   8.696  24.120  1.00  0.00     0.043 A 
ATOM     14  Cl  UNL     1      89.818   6.908  26.909  1.00  0.00    -0.084 Cl
ATOM     15  C   UNL     1      90.982   7.578  25.825  1.00  0.00     0.053 A 
ATOM     16  C   UNL     1      91.089   7.129  24.509  1.00  0.00     0.076 A 
ATOM     17  C   UNL     1      91.827   8.585  26.289  1.00  0.00     0.023 A 
ATOM     18  C   UNL     1      92.040   7.688  23.656  1.00  0.00     0.040 A 
ATOM     19  C   UNL     1      92.779   9.145  25.436  1.00  0.00     0.028 A 
BRANCH  16  20
ATOM     20  C   UNL     1      90.203   6.050  23.974  1.00  0.00     0.417 C 
ATOM     21  F   UNL     1      88.875   6.279  24.187  1.00  0.00    -0.166 F 
ATOM     22  F   UNL     1      90.324   5.865  22.627  1.00  0.00    -0.166 F 
ATOM     23  F   UNL     1      90.463   4.834  24.537  1.00  0.00    -0.166 F 
ENDBRANCH  16  20
ENDBRANCH   8  13
ENDBRANCH   1   7
BRANCH   2  24
ATOM     24  O   UNL     1      97.038  10.151  16.227  1.00  0.00    -0.457 OA
BRANCH  24  25
ATOM     25  C   UNL     1      97.391  11.402  15.751  1.00  0.00     0.131 A 
ATOM     26  C   UNL     1      96.416  12.365  15.598  1.00  0.00     0.081 A 
ATOM     27  C   UNL     1      98.710  11.659  15.443  1.00  0.00     0.067 A 
ATOM     28  C   UNL     1      96.820  13.601  15.120  1.00  0.00     0.131 A 
ATOM     29  C   UNL     1      99.012  12.927  14.972  1.00  0.00     0.116 A 
ATOM     30  N   UNL     1      98.097  13.908  14.802  1.00  0.00    -0.251 NA
BRANCH  28  31
ATOM     31  C   UNL     1      95.850  14.666  14.932  1.00  0.00     0.269 C 
ATOM     32  O   UNL     1      94.675  14.404  14.615  1.00  0.00    -0.268 OA
ATOM     33  N   UNL     1      96.294  15.977  15.146  1.00  0.00    -0.354 N 
ATOM     34  C   UNL     1      95.445  17.139  15.023  1.00  0.00     0.143 C 
ATOM     35  H   UNL     1      97.257  16.125  15.434  1.00  0.00     0.163 HD
ENDBRANCH  28  31
ENDBRANCH  24  25
ENDBRANCH   2  24
TORSDOF 6
ENDMDL
MODEL 5
REMARK VINA RESULT:    -7.070     20.019     21.984
REMARK INTER + INTRA:         -10.050
REMARK INTER:                  -9.933
REMARK INTRA:                  -0.117
REMARK UNBOUND:                -0.501
REMARK SMILES CNC(=O)c1cc(Oc2ccc(NC(=O)Nc3ccc(Cl)c(C(F)(F)F)c3)cc2)ccn1
REMARK SMILES IDX 12 1 9 2 11 3 28 4 10 5 29 6 13 7 16 8 14 9 15 11 17 13
REMARK SMILES IDX 21 14 20 15 22 16 19 17 27 18 18 19 23 20 24 21 25 22 26 23
REMARK SMILES IDX 8 24 7 25 6 26 30 27 5 28 31 29 32 30 3 31 4 32 2 33 1 34
REMARK H PARENT 16 10 13 12 2 35
REMARK Flexibility Score: inf
ROOT
ATOM      1  C   UNL     1      94.772   9.146  18.150  1.00  0.00     0.043 A 
ATOM      2  C   UNL     1      94.174   8.763  15.473  1.00  0.00     0.127 A 
ATOM      3  C   UNL     1      93.448   9.153  17.744  1.00  0.00     0.030 A 
ATOM      4  C   UNL     1      95.804   8.951  17.246  1.00  0.00     0.030 A 
ATOM      5  C   UNL     1      93.147   8.960  16.395  1.00  0.00     0.049 A 
ATOM      6  C   UNL     1      95.503   8.758  15.898  1.00  0.00     0.049 A 
ENDROOT
BRANCH   1   7
ATOM      7  N   UNL     1      95.077   9.342  19.518  1.00  0.00    -0.308 N 
ATOM      8  N   UNL     1      94.979   9.350  21.826  1.00  0.00    -0.308 N 
ATOM      9  C   UNL     1      94.312   8.971  20.636  1.00  0.00     0.323 C 
ATOM     10  H   UNL     1      95.875   9.816  21.704  1.00  0.00     0.171 HD
ATOM     11  O   UNL     1      93.226   8.403  20.594  1.00  0.00    -0.248 OA
ATOM     12  H   UNL     1      95.961   9.808  19.706  1.00  0.00     0.171 HD
BRANCH   8  13
ATOM     13  C   UNL     1      94.570   9.172  23.148  1.00  0.00     0.043 A 
ATOM     14  Cl  UNL     1      93.283   8.606  27.438  1.00  0.00    -0.084 Cl
ATOM     15  C   UNL     1      93.753   8.817  25.790  1.00  0.00     0.053 A 
ATOM     16  C   UNL     1      92.872   8.540  24.745  1.00  0.00     0.076 A 
ATOM     17  C   UNL     1      95.042   9.271  25.515  1.00  0.00     0.023 A 
ATOM     18  C   UNL     1      93.280   8.718  23.424  1.00  0.00     0.040 A 
ATOM     19  C   UNL     1      95.451   9.449  24.193  1.00  0.00     0.028 A 
BRANCH  16  20
ATOM     20  C   UNL     1      91.482   8.049  24.998  1.00  0.00     0.417 C 
ATOM     21  F   UNL     1      90.756   7.861  23.860  1.00  0.00    -0.166 F 
ATOM     22  F   UNL     1      91.439   6.854  25.654  1.00  0.00    -0.166 F 
ATOM     23  F   UNL     1      90.755   8.915  25.762  1.00  0.00    -0.166 F 
ENDBRANCH  16  20
ENDBRANCH   8  13
ENDBRANCH   1   7
BRANCH   2  24
ATOM     24  O   UNL     1      93.880   8.576  14.157  1.00  0.00    -0.457 OA
BRANCH  24  25
ATOM     25  C   UNL     1      92.950   7.602  13.838  1.00  0.00     0.131 A 
ATOM     26  C   UNL     1      91.783   7.966  13.201  1.00  0.00     0.081 A 
ATOM     27  C   UNL     1      93.211   6.288  14.162  1.00  0.00     0.067 A 
ATOM     28  C   UNL     1      90.885   6.954  12.901  1.00  0.00     0.131 A 
ATOM     29  C   UNL     1      92.250   5.350  13.821  1.00  0.00     0.116 A 
ATOM     30  N   UNL     1      91.089   5.651  13.196  1.00  0.00    -0.251 NA
BRANCH  28  31
ATOM     31  C   UNL     1      89.634   7.261  12.231  1.00  0.00     0.269 C 
ATOM     32  O   UNL     1      89.586   8.138  11.348  1.00  0.00    -0.268 OA
ATOM     33  N   UNL     1      88.510   6.515  12.607  1.00  0.00    -0.354 N 
ATOM     34  C   UNL     1      87.202   6.685  12.017  1.00  0.00     0.143 C 
ATOM     35  H   UNL     1      88.618   5.791  13.312  1.00  0.00     0.163 HD
ENDBRANCH  28  31
ENDBRANCH  24  25
ENDBRANCH   2  24
TORSDOF 6
ENDMDL
MODEL 6
REMARK VINA RESULT:    -7.061      1.833      2.348
REMARK INTER + INTRA:         -10.039
REMARK INTER:                  -9.121
REMARK INTRA:                  -0.917
REMARK UNBOUND:                -0.501
REMARK SMILES CNC(=O)c1cc(Oc2ccc(NC(=O)Nc3ccc(Cl)c(C(F)(F)F)c3)cc2)ccn1
REMARK SMILES IDX 12 1 9 2 11 3 28 4 10 5 29 6 13 7 16 8 14 9 15 11 17 13
REMARK SMILES IDX 21 14 20 15 22 16 19 17 27 18 18 19 23 20 24 21 25 22 26 23
REMARK SMILES IDX 8 24 7 25 6 26 30 27 5 28 31 29 32 30 3 31 4 32 2 33 1 34
REMARK H PARENT 16 10 13 12 2 35
REMARK Flexibility Score: inf
ROOT
ATOM      1  C   UNL     1      96.593 -11.173  24.012  1.00  0.00     0.043 A 
ATOM      2  C   UNL     1      99.315 -10.701  23.829  1.00  0.00     0.127 A 
ATOM      3  C   UNL     1      97.405 -11.469  25.093  1.00  0.00     0.030 A 
ATOM      4  C   UNL     1      97.112 -10.645  22.841  1.00  0.00     0.030 A 
ATOM      5  C   UNL     1      98.777 -11.231  25.002  1.00  0.00     0.049 A 
ATOM      6  C   UNL     1      98.483 -10.408  22.749  1.00  0.00     0.049 A 
ENDROOT
BRANCH   1   7
ATOM      7  N   UNL     1      95.201 -11.414  24.106  1.00  0.00    -0.308 N 
ATOM      8  N   UNL     1      93.102 -12.357  23.902  1.00  0.00    -0.308 N 
ATOM      9  C   UNL     1      94.475 -12.496  23.582  1.00  0.00     0.323 C 
ATOM     10  H   UNL     1      92.852 -11.529  24.439  1.00  0.00     0.171 HD
ATOM     11  O   UNL     1      94.951 -13.427  22.943  1.00  0.00    -0.248 OA
ATOM     12  H   UNL     1      94.670 -10.713  24.616  1.00  0.00     0.171 HD
BRANCH   8  13
ATOM     13  C   UNL     1      92.042 -13.203  23.576  1.00  0.00     0.043 A 
ATOM     14  Cl  UNL     1      88.625 -15.969  22.547  1.00  0.00    -0.084 Cl
ATOM     15  C   UNL     1      89.922 -14.895  22.926  1.00  0.00     0.053 A 
ATOM     16  C   UNL     1      90.040 -13.653  22.302  1.00  0.00     0.076 A 
ATOM     17  C   UNL     1      90.864 -15.291  23.874  1.00  0.00     0.023 A 
ATOM     18  C   UNL     1      91.099 -12.806  22.628  1.00  0.00     0.040 A 
ATOM     19  C   UNL     1      91.924 -14.445  24.200  1.00  0.00     0.028 A 
BRANCH  16  20
ATOM     20  C   UNL     1      89.052 -13.192  21.279  1.00  0.00     0.417 C 
ATOM     21  F   UNL     1      87.829 -12.889  21.801  1.00  0.00    -0.166 F 
ATOM     22  F   UNL     1      89.445 -12.070  20.610  1.00  0.00    -0.166 F 
ATOM     23  F   UNL     1      88.820 -14.132  20.317  1.00  0.00    -0.166 F 
ENDBRANCH  16  20
ENDBRANCH   8  13
ENDBRANCH   1   7
BRANCH   2  24
ATOM     24  O   UNL     1     100.654 -10.470  23.739  1.00  0.00    -0.457 OA
BRANCH  24  25
ATOM     25  C   UNL     1     101.067  -9.181  23.449  1.00  0.00     0.131 A 
ATOM     26  C   UNL     1     101.857  -8.959  22.341  1.00  0.00     0.081 A 
ATOM     27  C   UNL     1     100.676  -8.147  24.272  1.00  0.00     0.067 A 
ATOM     28  C   UNL     1     102.241  -7.651  22.092  1.00  0.00     0.131 A 
ATOM     29  C   UNL     1     101.114  -6.875  23.938  1.00  0.00     0.116 A 
ATOM     30  N   UNL     1     101.889  -6.600  22.865  1.00  0.00    -0.251 NA
BRANCH  28  31
ATOM     31  C   UNL     1     103.074  -7.340  20.944  1.00  0.00     0.269 C 
ATOM     32  O   UNL     1     104.136  -7.957  20.745  1.00  0.00    -0.268 OA
ATOM     33  N   UNL     1     102.614  -6.342  20.076  1.00  0.00    -0.354 N 
ATOM     34  C   UNL     1     103.315  -5.935  18.880  1.00  0.00     0.143 C 
ATOM     35  H   UNL     1     101.723  -5.894  20.275  1.00  0.00     0.163 HD
ENDBRANCH  28  31
ENDBRANCH  24  25
ENDBRANCH   2  24
TORSDOF 6
ENDMDL
MODEL 7
REMARK VINA RESULT:    -6.913      5.886     11.395
REMARK INTER + INTRA:          -9.838
REMARK INTER:                  -8.864
REMARK INTRA:                  -0.974
REMARK UNBOUND:                -0.501
REMARK SMILES CNC(=O)c1cc(Oc2ccc(NC(=O)Nc3ccc(Cl)c(C(F)(F)F)c3)cc2)ccn1
REMARK SMILES IDX 12 1 9 2 11 3 28 4 10 5 29 6 13 7 16 8 14 9 15 11 17 13
REMARK SMILES IDX 21 14 20 15 22 16 19 17 27 18 18 19 23 20 24 21 25 22 26 23
REMARK SMILES IDX 8 24 7 25 6 26 30 27 5 28 31 29 32 30 3 31 4 32 2 33 1 34
REMARK H PARENT 16 10 13 12 2 35
REMARK Flexibility Score: inf
ROOT
ATOM      1  C   UNL     1      96.149 -13.160  24.098  1.00  0.00     0.043 A 
ATOM      2  C   UNL     1      93.748 -14.522  23.886  1.00  0.00     0.127 A 
ATOM      3  C   UNL     1      95.689 -13.893  25.179  1.00  0.00     0.030 A 
ATOM      4  C   UNL     1      95.435 -13.094  22.913  1.00  0.00     0.030 A 
ATOM      5  C   UNL     1      94.479 -14.580  25.073  1.00  0.00     0.049 A 
ATOM      6  C   UNL     1      94.225 -13.779  22.806  1.00  0.00     0.049 A 
ENDROOT
BRANCH   1   7
ATOM      7  N   UNL     1      97.377 -12.464  24.206  1.00  0.00    -0.308 N 
ATOM      8  N   UNL     1      98.965 -10.823  24.555  1.00  0.00    -0.308 N 
ATOM      9  C   UNL     1      97.581 -11.122  24.567  1.00  0.00     0.323 C 
ATOM     10  H   UNL     1      99.583 -11.588  24.297  1.00  0.00     0.171 HD
ATOM     11  O   UNL     1      96.696 -10.322  24.851  1.00  0.00    -0.248 OA
ATOM     12  H   UNL     1      98.209 -13.010  23.996  1.00  0.00     0.171 HD
BRANCH   8  13
ATOM     13  C   UNL     1      99.597  -9.614  24.847  1.00  0.00     0.043 A 
ATOM     14  Cl  UNL     1     101.631  -5.705  25.832  1.00  0.00    -0.084 Cl
ATOM     15  C   UNL     1     100.860  -7.197  25.433  1.00  0.00     0.053 A 
ATOM     16  C   UNL     1     100.836  -7.671  24.121  1.00  0.00     0.076 A 
ATOM     17  C   UNL     1     100.253  -7.931  26.451  1.00  0.00     0.023 A 
ATOM     18  C   UNL     1     100.204  -8.880  23.828  1.00  0.00     0.040 A 
ATOM     19  C   UNL     1      99.621  -9.140  26.159  1.00  0.00     0.028 A 
BRANCH  16  20
ATOM     20  C   UNL     1     101.473  -6.914  23.001  1.00  0.00     0.417 C 
ATOM     21  F   UNL     1     102.739  -6.489  23.281  1.00  0.00    -0.166 F 
ATOM     22  F   UNL     1     101.583  -7.637  21.849  1.00  0.00    -0.166 F 
ATOM     23  F   UNL     1     100.773  -5.791  22.666  1.00  0.00    -0.166 F 
ENDBRANCH  16  20
ENDBRANCH   8  13
ENDBRANCH   1   7
BRANCH   2  24
ATOM     24  O   UNL     1      92.566 -15.191  23.783  1.00  0.00    -0.457 OA
BRANCH  24  25
ATOM     25  C   UNL     1      91.404 -14.441  23.737  1.00  0.00     0.131 A 
ATOM     26  C   UNL     1      90.672 -14.402  22.569  1.00  0.00     0.081 A 
ATOM     27  C   UNL     1      91.002 -13.752  24.861  1.00  0.00     0.067 A 
ATOM     28  C   UNL     1      89.515 -13.639  22.576  1.00  0.00     0.131 A 
ATOM     29  C   UNL     1      89.831 -13.017  24.766  1.00  0.00     0.116 A 
ATOM     30  N   UNL     1      89.074 -12.943  23.647  1.00  0.00    -0.251 NA
BRANCH  28  31
ATOM     31  C   UNL     1      88.692 -13.549  21.382  1.00  0.00     0.269 C 
ATOM     32  O   UNL     1      88.855 -14.344  20.439  1.00  0.00    -0.268 OA
ATOM     33  N   UNL     1      87.709 -12.552  21.361  1.00  0.00    -0.354 N 
ATOM     34  C   UNL     1      86.797 -12.351  20.258  1.00  0.00     0.143 C 
ATOM     35  H   UNL     1      87.604 -11.952  22.175  1.00  0.00     0.163 HD
ENDBRANCH  28  31
ENDBRANCH  24  25
ENDBRANCH   2  24
TORSDOF 6
ENDMDL
MODEL 8
REMARK VINA RESULT:    -6.892      4.107      4.969
REMARK INTER + INTRA:          -9.810
REMARK INTER:                  -8.831
REMARK INTRA:                  -0.979
REMARK UNBOUND:                -0.501
REMARK SMILES CNC(=O)c1cc(Oc2ccc(NC(=O)Nc3ccc(Cl)c(C(F)(F)F)c3)cc2)ccn1
REMARK SMILES IDX 12 1 9 2 11 3 28 4 10 5 29 6 13 7 16 8 14 9 15 11 17 13
REMARK SMILES IDX 21 14 20 15 22 16 19 17 27 18 18 19 23 20 24 21 25 22 26 23
REMARK SMILES IDX 8 24 7 25 6 26 30 27 5 28 31 29 32 30 3 31 4 32 2 33 1 34
REMARK H PARENT 16 10 13 12 2 35
REMARK Flexibility Score: inf
ROOT
ATOM      1  C   UNL     1      96.968 -12.297  21.697  1.00  0.00     0.043 A 
ATOM      2  C   UNL     1      99.331 -12.507  20.269  1.00  0.00     0.127 A 
ATOM      3  C   UNL     1      97.012 -11.843  20.390  1.00  0.00     0.030 A 
ATOM      4  C   UNL     1      98.080 -12.856  22.305  1.00  0.00     0.030 A 
ATOM      5  C   UNL     1      98.203 -11.948  19.670  1.00  0.00     0.049 A 
ATOM      6  C   UNL     1      99.270 -12.961  21.586  1.00  0.00     0.049 A 
ENDROOT
BRANCH   1   7
ATOM      7  N   UNL     1      95.760 -12.190  22.426  1.00  0.00    -0.308 N 
ATOM      8  N   UNL     1      93.644 -12.578  23.269  1.00  0.00    -0.308 N 
ATOM      9  C   UNL     1      94.643 -13.041  22.379  1.00  0.00     0.323 C 
ATOM     10  H   UNL     1      93.869 -11.733  23.789  1.00  0.00     0.171 HD
ATOM     11  O   UNL     1      94.542 -14.039  21.674  1.00  0.00    -0.248 OA
ATOM     12  H   UNL     1      95.701 -11.397  23.060  1.00  0.00     0.171 HD
BRANCH   8  13
ATOM     13  C   UNL     1      92.387 -13.124  23.527  1.00  0.00     0.043 A 
ATOM     14  Cl  UNL     1      88.332 -14.909  24.396  1.00  0.00    -0.084 Cl
ATOM     15  C   UNL     1      89.873 -14.217  24.044  1.00  0.00     0.053 A 
ATOM     16  C   UNL     1      90.094 -13.502  22.867  1.00  0.00     0.076 A 
ATOM     17  C   UNL     1      90.909 -14.386  24.962  1.00  0.00     0.023 A 
ATOM     18  C   UNL     1      91.350 -12.955  22.608  1.00  0.00     0.040 A 
ATOM     19  C   UNL     1      92.166 -13.839  24.704  1.00  0.00     0.028 A 
BRANCH  16  20
ATOM     20  C   UNL     1      89.011 -13.300  21.856  1.00  0.00     0.417 C 
ATOM     21  F   UNL     1      87.866 -12.776  22.382  1.00  0.00    -0.166 F 
ATOM     22  F   UNL     1      89.362 -12.454  20.845  1.00  0.00    -0.166 F 
ATOM     23  F   UNL     1      88.639 -14.465  21.250  1.00  0.00    -0.166 F 
ENDBRANCH  16  20
ENDBRANCH   8  13
ENDBRANCH   1   7
BRANCH   2  24
ATOM     24  O   UNL     1     100.493 -12.609  19.567  1.00  0.00    -0.457 OA
BRANCH  24  25
ATOM     25  C   UNL     1     101.163 -11.438  19.257  1.00  0.00     0.131 A 
ATOM     26  C   UNL     1     101.060 -10.918  17.984  1.00  0.00     0.081 A 
ATOM     27  C   UNL     1     101.918 -10.815  20.228  1.00  0.00     0.067 A 
ATOM     28  C   UNL     1     101.747  -9.743  17.725  1.00  0.00     0.131 A 
ATOM     29  C   UNL     1     102.567  -9.645  19.869  1.00  0.00     0.116 A 
ATOM     30  N   UNL     1     102.501  -9.091  18.637  1.00  0.00    -0.251 NA
BRANCH  28  31
ATOM     31  C   UNL     1     101.686  -9.136  16.407  1.00  0.00     0.269 C 
ATOM     32  O   UNL     1     101.691  -7.897  16.279  1.00  0.00    -0.268 OA
ATOM     33  N   UNL     1     101.647 -10.002  15.308  1.00  0.00    -0.354 N 
ATOM     34  C   UNL     1     101.609  -9.552  13.935  1.00  0.00     0.143 C 
ATOM     35  H   UNL     1     101.677 -11.004  15.474  1.00  0.00     0.163 HD
ENDBRANCH  28  31
ENDBRANCH  24  25
ENDBRANCH   2  24
TORSDOF 6
ENDMDL
MODEL 9
REMARK VINA RESULT:    -6.817      5.740     11.613
REMARK INTER + INTRA:          -9.709
REMARK INTER:                  -9.490
REMARK INTRA:                  -0.219
REMARK UNBOUND:                -0.501
REMARK SMILES CNC(=O)c1cc(Oc2ccc(NC(=O)Nc3ccc(Cl)c(C(F)(F)F)c3)cc2)ccn1
REMARK SMILES IDX 12 1 9 2 11 3 28 4 10 5 29 6 13 7 16 8 14 9 15 11 17 13
REMARK SMILES IDX 21 14 20 15 22 16 19 17 27 18 18 19 23 20 24 21 25 22 26 23
REMARK SMILES IDX 8 24 7 25 6 26 30 27 5 28 31 29 32 30 3 31 4 32 2 33 1 34
REMARK H PARENT 16 10 13 12 2 35
REMARK Flexibility Score: inf
ROOT
ATOM      1  C   UNL     1      95.376 -13.133  23.358  1.00  0.00     0.043 A 
ATOM      2  C   UNL     1      93.053 -14.149  22.243  1.00  0.00     0.127 A 
ATOM      3  C   UNL     1      94.151 -12.741  23.871  1.00  0.00     0.030 A 
ATOM      4  C   UNL     1      95.464 -14.023  22.300  1.00  0.00     0.030 A 
ATOM      5  C   UNL     1      92.980 -13.252  23.309  1.00  0.00     0.049 A 
ATOM      6  C   UNL     1      94.294 -14.534  21.738  1.00  0.00     0.049 A 
ENDROOT
BRANCH   1   7
ATOM      7  N   UNL     1      96.562 -12.614  23.927  1.00  0.00    -0.308 N 
ATOM      8  N   UNL     1      98.204 -11.181  24.694  1.00  0.00    -0.308 N 
ATOM      9  C   UNL     1      96.936 -11.267  24.069  1.00  0.00     0.323 C 
ATOM     10  H   UNL     1      98.641 -12.066  24.937  1.00  0.00     0.171 HD
ATOM     11  O   UNL     1      96.269 -10.305  23.707  1.00  0.00    -0.248 OA
ATOM     12  H   UNL     1      97.220 -13.308  24.275  1.00  0.00     0.171 HD
BRANCH   8  13
ATOM     13  C   UNL     1      98.938 -10.040  25.019  1.00  0.00     0.043 A 
ATOM     14  Cl  UNL     1     101.299  -6.349  26.108  1.00  0.00    -0.084 Cl
ATOM     15  C   UNL     1     100.406  -7.759  25.669  1.00  0.00     0.053 A 
ATOM     16  C   UNL     1     100.432  -8.257  24.367  1.00  0.00     0.076 A 
ATOM     17  C   UNL     1      99.645  -8.400  26.646  1.00  0.00     0.023 A 
ATOM     18  C   UNL     1      99.699  -9.398  24.041  1.00  0.00     0.040 A 
ATOM     19  C   UNL     1      98.912  -9.541  26.321  1.00  0.00     0.028 A 
BRANCH  16  20
ATOM     20  C   UNL     1     101.233  -7.597  23.290  1.00  0.00     0.417 C 
ATOM     21  F   UNL     1     100.730  -6.392  22.898  1.00  0.00    -0.166 F 
ATOM     22  F   UNL     1     102.525  -7.347  23.650  1.00  0.00    -0.166 F 
ATOM     23  F   UNL     1     101.306  -8.353  22.156  1.00  0.00    -0.166 F 
ENDBRANCH  16  20
ENDBRANCH   8  13
ENDBRANCH   1   7
BRANCH   2  24
ATOM     24  O   UNL     1      91.910 -14.647  21.695  1.00  0.00    -0.457 OA
BRANCH  24  25
ATOM     25  C   UNL     1      90.710 -14.328  22.307  1.00  0.00     0.131 A 
ATOM     26  C   UNL     1      90.519 -14.661  23.632  1.00  0.00     0.081 A 
ATOM     27  C   UNL     1      89.733 -13.683  21.580  1.00  0.00     0.067 A 
ATOM     28  C   UNL     1      89.302 -14.318  24.198  1.00  0.00     0.131 A 
ATOM     29  C   UNL     1      88.551 -13.384  22.237  1.00  0.00     0.116 A 
ATOM     30  N   UNL     1      88.310 -13.686  23.533  1.00  0.00    -0.251 NA
BRANCH  28  31
ATOM     31  C   UNL     1      89.027 -14.636  25.589  1.00  0.00     0.269 C 
ATOM     32  O   UNL     1      89.027 -13.742  26.455  1.00  0.00    -0.268 OA
ATOM     33  N   UNL     1      88.744 -15.973  25.892  1.00  0.00    -0.354 N 
ATOM     34  C   UNL     1      88.429 -16.442  27.222  1.00  0.00     0.143 C 
ATOM     35  H   UNL     1      88.729 -16.653  25.137  1.00  0.00     0.163 HD
ENDBRANCH  28  31
ENDBRANCH  24  25
ENDBRANCH   2  24
TORSDOF 6
ENDMDL
MODEL 10
REMARK VINA RESULT:    -6.741      6.183     11.785
REMARK INTER + INTRA:          -9.606
REMARK INTER:                  -8.663
REMARK INTRA:                  -0.942
REMARK UNBOUND:                -0.501
REMARK SMILES CNC(=O)c1cc(Oc2ccc(NC(=O)Nc3ccc(Cl)c(C(F)(F)F)c3)cc2)ccn1
REMARK SMILES IDX 12 1 9 2 11 3 28 4 10 5 29 6 13 7 16 8 14 9 15 11 17 13
REMARK SMILES IDX 21 14 20 15 22 16 19 17 27 18 18 19 23 20 24 21 25 22 26 23
REMARK SMILES IDX 8 24 7 25 6 26 30 27 5 28 31 29 32 30 3 31 4 32 2 33 1 34
REMARK H PARENT 16 10 13 12 2 35
REMARK Flexibility Score: inf
ROOT
ATOM      1  C   UNL     1      95.475 -13.219  21.476  1.00  0.00     0.043 A 
ATOM      2  C   UNL     1      94.987 -15.498  19.980  1.00  0.00     0.127 A 
ATOM      3  C   UNL     1      94.518 -14.121  21.909  1.00  0.00     0.030 A 
ATOM      4  C   UNL     1      96.194 -13.432  20.312  1.00  0.00     0.030 A 
ATOM      5  C   UNL     1      94.272 -15.270  21.156  1.00  0.00     0.049 A 
ATOM      6  C   UNL     1      95.949 -14.580  19.558  1.00  0.00     0.049 A 
ENDROOT
BRANCH   1   7
ATOM      7  N   UNL     1      95.724 -12.054  22.241  1.00  0.00    -0.308 N 
ATOM      8  N   UNL     1      96.663 -10.520  23.690  1.00  0.00    -0.308 N 
ATOM      9  C   UNL     1      96.784 -11.815  23.131  1.00  0.00     0.323 C 
ATOM     10  H   UNL     1      95.861  -9.976  23.382  1.00  0.00     0.171 HD
ATOM     11  O   UNL     1      97.685 -12.606  23.389  1.00  0.00    -0.248 OA
ATOM     12  H   UNL     1      95.048 -11.303  22.126  1.00  0.00     0.171 HD
BRANCH   8  13
ATOM     13  C   UNL     1      97.497  -9.889  24.613  1.00  0.00     0.043 A 
ATOM     14  Cl  UNL     1     100.171  -7.856  27.631  1.00  0.00    -0.084 Cl
ATOM     15  C   UNL     1      99.164  -8.628  26.460  1.00  0.00     0.053 A 
ATOM     16  C   UNL     1      99.498  -8.628  25.105  1.00  0.00     0.076 A 
ATOM     17  C   UNL     1      97.997  -9.258  26.891  1.00  0.00     0.023 A 
ATOM     18  C   UNL     1      98.664  -9.259  24.182  1.00  0.00     0.040 A 
ATOM     19  C   UNL     1      97.163  -9.889  25.968  1.00  0.00     0.028 A 
BRANCH  16  20
ATOM     20  C   UNL     1     100.738  -7.962  24.603  1.00  0.00     0.417 C 
ATOM     21  F   UNL     1     101.885  -8.480  25.129  1.00  0.00    -0.166 F 
ATOM     22  F   UNL     1     100.892  -8.050  23.250  1.00  0.00    -0.166 F 
ATOM     23  F   UNL     1     100.769  -6.629  24.891  1.00  0.00    -0.166 F 
ENDBRANCH  16  20
ENDBRANCH   8  13
ENDBRANCH   1   7
BRANCH   2  24
ATOM     24  O   UNL     1      94.747 -16.618  19.245  1.00  0.00    -0.457 OA
BRANCH  24  25
ATOM     25  C   UNL     1      93.655 -16.607  18.393  1.00  0.00     0.131 A 
ATOM     26  C   UNL     1      92.407 -16.913  18.892  1.00  0.00     0.081 A 
ATOM     27  C   UNL     1      93.840 -16.288  17.065  1.00  0.00     0.067 A 
ATOM     28  C   UNL     1      91.348 -16.886  18.000  1.00  0.00     0.131 A 
ATOM     29  C   UNL     1      92.717 -16.289  16.254  1.00  0.00     0.116 A 
ATOM     30  N   UNL     1      91.470 -16.581  16.689  1.00  0.00    -0.251 NA
BRANCH  28  31
ATOM     31  C   UNL     1      90.003 -17.197  18.452  1.00  0.00     0.269 C 
ATOM     32  O   UNL     1      89.051 -17.209  17.649  1.00  0.00    -0.268 OA
ATOM     33  N   UNL     1      89.841 -17.498  19.809  1.00  0.00    -0.354 N 
ATOM     34  C   UNL     1      88.573 -17.850  20.406  1.00  0.00     0.143 C 
ATOM     35  H   UNL     1      90.661 -17.502  20.410  1.00  0.00     0.163 HD
ENDBRANCH  28  31
ENDBRANCH  24  25
ENDBRANCH   2  24
TORSDOF 6
ENDMDL
MODEL 11
REMARK VINA RESULT:    -6.674      3.135      4.429
REMARK INTER + INTRA:          -9.516
REMARK INTER:                  -8.461
REMARK INTRA:                  -1.054
REMARK UNBOUND:                -0.501
REMARK SMILES CNC(=O)c1cc(Oc2ccc(NC(=O)Nc3ccc(Cl)c(C(F)(F)F)c3)cc2)ccn1
REMARK SMILES IDX 12 1 9 2 11 3 28 4 10 5 29 6 13 7 16 8 14 9 15 11 17 13
REMARK SMILES IDX 21 14 20 15 22 16 19 17 27 18 18 19 23 20 24 21 25 22 26 23
REMARK SMILES IDX 8 24 7 25 6 26 30 27 5 28 31 29 32 30 3 31 4 32 2 33 1 34
REMARK H PARENT 16 10 13 12 2 35
REMARK Flexibility Score: inf
ROOT
ATOM      1  C   UNL     1      96.872 -12.319  21.683  1.00  0.00     0.043 A 
ATOM      2  C   UNL     1      99.210 -12.497  20.209  1.00  0.00     0.127 A 
ATOM      3  C   UNL     1      97.965 -12.977  22.223  1.00  0.00     0.030 A 
ATOM      4  C   UNL     1      96.924 -11.748  20.423  1.00  0.00     0.030 A 
ATOM      5  C   UNL     1      99.143 -13.067  21.480  1.00  0.00     0.049 A 
ATOM      6  C   UNL     1      98.101 -11.838  19.680  1.00  0.00     0.049 A 
ENDROOT
BRANCH   1   7
ATOM      7  N   UNL     1      95.678 -12.228  22.437  1.00  0.00    -0.308 N 
ATOM      8  N   UNL     1      93.575 -12.629  23.304  1.00  0.00    -0.308 N 
ATOM      9  C   UNL     1      94.555 -13.070  22.382  1.00  0.00     0.323 C 
ATOM     10  H   UNL     1      93.814 -11.803  23.846  1.00  0.00     0.171 HD
ATOM     11  O   UNL     1      94.435 -14.045  21.648  1.00  0.00    -0.248 OA
ATOM     12  H   UNL     1      95.636 -11.455  23.097  1.00  0.00     0.171 HD
BRANCH   8  13
ATOM     13  C   UNL     1      92.319 -13.176  23.567  1.00  0.00     0.043 A 
ATOM     14  Cl  UNL     1      88.267 -14.962  24.452  1.00  0.00    -0.084 Cl
ATOM     15  C   UNL     1      89.807 -14.270  24.093  1.00  0.00     0.053 A 
ATOM     16  C   UNL     1      90.030 -13.574  22.905  1.00  0.00     0.076 A 
ATOM     17  C   UNL     1      90.840 -14.419  25.018  1.00  0.00     0.023 A 
ATOM     18  C   UNL     1      91.285 -13.027  22.642  1.00  0.00     0.040 A 
ATOM     19  C   UNL     1      92.096 -13.872  24.755  1.00  0.00     0.028 A 
BRANCH  16  20
ATOM     20  C   UNL     1      88.949 -13.394  21.887  1.00  0.00     0.417 C 
ATOM     21  F   UNL     1      89.326 -12.628  20.823  1.00  0.00    -0.166 F 
ATOM     22  F   UNL     1      88.509 -14.568  21.348  1.00  0.00    -0.166 F 
ATOM     23  F   UNL     1      87.842 -12.788  22.404  1.00  0.00    -0.166 F 
ENDBRANCH  16  20
ENDBRANCH   8  13
ENDBRANCH   1   7
BRANCH   2  24
ATOM     24  O   UNL     1     100.359 -12.586  19.484  1.00  0.00    -0.457 OA
BRANCH  24  25
ATOM     25  C   UNL     1     101.089 -11.425  19.290  1.00  0.00     0.131 A 
ATOM     26  C   UNL     1     101.661 -10.799  20.377  1.00  0.00     0.081 A 
ATOM     27  C   UNL     1     101.229 -10.923  18.014  1.00  0.00     0.067 A 
ATOM     28  C   UNL     1     102.382  -9.642  20.130  1.00  0.00     0.131 A 
ATOM     29  C   UNL     1     101.970  -9.760  17.872  1.00  0.00     0.116 A 
ATOM     30  N   UNL     1     102.552  -9.105  18.902  1.00  0.00    -0.251 NA
BRANCH  28  31
ATOM     31  C   UNL     1     103.014  -8.926  21.224  1.00  0.00     0.269 C 
ATOM     32  O   UNL     1     104.206  -9.137  21.515  1.00  0.00    -0.268 OA
ATOM     33  N   UNL     1     102.231  -7.988  21.907  1.00  0.00    -0.354 N 
ATOM     34  C   UNL     1     102.721  -7.180  23.001  1.00  0.00     0.143 C 
ATOM     35  H   UNL     1     101.273  -7.838  21.604  1.00  0.00     0.163 HD
ENDBRANCH  28  31
ENDBRANCH  24  25
ENDBRANCH   2  24
TORSDOF 6
ENDMDL
MODEL 12
REMARK VINA RESULT:    -6.661      5.777     11.653
REMARK INTER + INTRA:          -9.498
REMARK INTER:                  -8.454
REMARK INTRA:                  -1.044
REMARK UNBOUND:                -0.501
REMARK SMILES CNC(=O)c1cc(Oc2ccc(NC(=O)Nc3ccc(Cl)c(C(F)(F)F)c3)cc2)ccn1
REMARK SMILES IDX 12 1 9 2 11 3 28 4 10 5 29 6 13 7 16 8 14 9 15 11 17 13
REMARK SMILES IDX 21 14 20 15 22 16 19 17 27 18 18 19 23 20 24 21 25 22 26 23
REMARK SMILES IDX 8 24 7 25 6 26 30 27 5 28 31 29 32 30 3 31 4 32 2 33 1 34
REMARK H PARENT 16 10 13 12 2 35
REMARK Flexibility Score: inf
ROOT
ATOM      1  C   UNL     1      94.101 -13.079  23.640  1.00  0.00     0.043 A 
ATOM      2  C   UNL     1      92.922 -15.451  22.831  1.00  0.00     0.127 A 
ATOM      3  C   UNL     1      93.388 -13.830  24.560  1.00  0.00     0.030 A 
ATOM      4  C   UNL     1      94.238 -13.489  22.324  1.00  0.00     0.030 A 
ATOM      5  C   UNL     1      92.794 -15.025  24.153  1.00  0.00     0.049 A 
ATOM      6  C   UNL     1      93.644 -14.684  21.916  1.00  0.00     0.049 A 
ENDROOT
BRANCH   1   7
ATOM      7  N   UNL     1      94.703 -11.867  24.054  1.00  0.00    -0.308 N 
ATOM      8  N   UNL     1      96.198 -10.308  24.873  1.00  0.00    -0.308 N 
ATOM      9  C   UNL     1      95.986 -11.680  24.594  1.00  0.00     0.323 C 
ATOM     10  H   UNL     1      95.424  -9.685  24.654  1.00  0.00     0.171 HD
ATOM     11  O   UNL     1      96.807 -12.569  24.795  1.00  0.00    -0.248 OA
ATOM     12  H   UNL     1      94.130 -11.035  23.943  1.00  0.00     0.171 HD
BRANCH   8  13
ATOM     13  C   UNL     1      97.328  -9.694  25.413  1.00  0.00     0.043 A 
ATOM     14  Cl  UNL     1     100.970  -7.710  27.199  1.00  0.00    -0.084 Cl
ATOM     15  C   UNL     1      99.588  -8.467  26.494  1.00  0.00     0.053 A 
ATOM     16  C   UNL     1      99.481  -8.640  25.115  1.00  0.00     0.076 A 
ATOM     17  C   UNL     1      98.565  -8.907  27.333  1.00  0.00     0.023 A 
ATOM     18  C   UNL     1      98.352  -9.254  24.574  1.00  0.00     0.040 A 
ATOM     19  C   UNL     1      97.434  -9.521  26.793  1.00  0.00     0.028 A 
BRANCH  16  20
ATOM     20  C   UNL     1     100.555  -8.181  24.181  1.00  0.00     0.417 C 
ATOM     21  F   UNL     1     100.740  -6.830  24.186  1.00  0.00    -0.166 F 
ATOM     22  F   UNL     1     101.781  -8.713  24.459  1.00  0.00    -0.166 F 
ATOM     23  F   UNL     1     100.295  -8.513  22.883  1.00  0.00    -0.166 F 
ENDBRANCH  16  20
ENDBRANCH   8  13
ENDBRANCH   1   7
BRANCH   2  24
ATOM     24  O   UNL     1      92.342 -16.617  22.433  1.00  0.00    -0.457 OA
BRANCH  24  25
ATOM     25  C   UNL     1      91.211 -16.535  21.639  1.00  0.00     0.131 A 
ATOM     26  C   UNL     1      91.304 -16.847  20.299  1.00  0.00     0.081 A 
ATOM     27  C   UNL     1      90.016 -16.144  22.205  1.00  0.00     0.067 A 
ATOM     28  C   UNL     1      90.144 -16.751  19.548  1.00  0.00     0.131 A 
ATOM     29  C   UNL     1      88.914 -16.079  21.369  1.00  0.00     0.116 A 
ATOM     30  N   UNL     1      88.947 -16.374  20.049  1.00  0.00    -0.251 NA
BRANCH  28  31
ATOM     31  C   UNL     1      90.163 -17.064  18.129  1.00  0.00     0.269 C 
ATOM     32  O   UNL     1      89.104 -17.292  17.516  1.00  0.00    -0.268 OA
ATOM     33  N   UNL     1      91.412 -17.073  17.496  1.00  0.00    -0.354 N 
ATOM     34  C   UNL     1      91.593 -17.343  16.088  1.00  0.00     0.143 C 
ATOM     35  H   UNL     1      92.239 -16.849  18.044  1.00  0.00     0.163 HD
ENDBRANCH  28  31
ENDBRANCH  24  25
ENDBRANCH   2  24
TORSDOF 6
ENDMDL
MODEL 13
REMARK VINA RESULT:    -6.627      1.831      2.448
REMARK INTER + INTRA:          -9.453
REMARK INTER:                  -8.378
REMARK INTRA:                  -1.075
REMARK UNBOUND:                -0.501
REMARK SMILES CNC(=O)c1cc(Oc2ccc(NC(=O)Nc3ccc(Cl)c(C(F)(F)F)c3)cc2)ccn1
REMARK SMILES IDX 12 1 9 2 11 3 28 4 10 5 29 6 13 7 16 8 14 9 15 11 17 13
REMARK SMILES IDX 21 14 20 15 22 16 19 17 27 18 18 19 23 20 24 21 25 22 26 23
REMARK SMILES IDX 8 24 7 25 6 26 30 27 5 28 31 29 32 30 3 31 4 32 2 33 1 34
REMARK H PARENT 16 10 13 12 2 35
REMARK Flexibility Score: inf
ROOT
ATOM      1  C   UNL     1      98.108 -11.158  26.754  1.00  0.00     0.043 A 
ATOM      2  C   UNL     1      99.970  -9.242  27.483  1.00  0.00     0.127 A 
ATOM      3  C   UNL     1      97.670  -9.923  27.202  1.00  0.00     0.030 A 
ATOM      4  C   UNL     1      99.458 -11.455  26.660  1.00  0.00     0.030 A 
ATOM      5  C   UNL     1      98.608  -8.958  27.570  1.00  0.00     0.049 A 
ATOM      6  C   UNL     1     100.396 -10.490  27.028  1.00  0.00     0.049 A 
ENDROOT
BRANCH   1   7
ATOM      7  N   UNL     1      97.156 -12.136  26.381  1.00  0.00    -0.308 N 
ATOM      8  N   UNL     1      95.577 -13.353  25.213  1.00  0.00    -0.308 N 
ATOM      9  C   UNL     1      96.421 -12.216  25.186  1.00  0.00     0.323 C 
ATOM     10  H   UNL     1      95.622 -13.920  26.056  1.00  0.00     0.171 HD
ATOM     11  O   UNL     1      96.495 -11.422  24.254  1.00  0.00    -0.248 OA
ATOM     12  H   UNL     1      96.990 -12.868  27.067  1.00  0.00     0.171 HD
BRANCH   8  13
ATOM     13  C   UNL     1      94.686 -13.799  24.236  1.00  0.00     0.043 A 
ATOM     14  Cl  UNL     1      91.832 -15.267  21.061  1.00  0.00    -0.084 Cl
ATOM     15  C   UNL     1      92.906 -14.691  22.284  1.00  0.00     0.053 A 
ATOM     16  C   UNL     1      92.520 -13.688  23.173  1.00  0.00     0.076 A 
ATOM     17  C   UNL     1      94.181 -15.247  22.370  1.00  0.00     0.023 A 
ATOM     18  C   UNL     1      93.410 -13.242  24.150  1.00  0.00     0.040 A 
ATOM     19  C   UNL     1      95.072 -14.802  23.347  1.00  0.00     0.028 A 
BRANCH  16  20
ATOM     20  C   UNL     1      91.163 -13.065  23.112  1.00  0.00     0.417 C 
ATOM     21  F   UNL     1      90.910 -12.425  21.934  1.00  0.00    -0.166 F 
ATOM     22  F   UNL     1      90.145 -13.962  23.259  1.00  0.00    -0.166 F 
ATOM     23  F   UNL     1      90.973 -12.130  24.088  1.00  0.00    -0.166 F 
ENDBRANCH  16  20
ENDBRANCH   8  13
ENDBRANCH   1   7
BRANCH   2  24
ATOM     24  O   UNL     1     100.885  -8.301  27.843  1.00  0.00    -0.457 OA
BRANCH  24  25
ATOM     25  C   UNL     1     101.022  -7.191  27.026  1.00  0.00     0.131 A 
ATOM     26  C   UNL     1     101.205  -7.370  25.671  1.00  0.00     0.081 A 
ATOM     27  C   UNL     1     100.971  -5.932  27.585  1.00  0.00     0.067 A 
ATOM     28  C   UNL     1     101.335  -6.228  24.897  1.00  0.00     0.131 A 
ATOM     29  C   UNL     1     101.112  -4.854  26.726  1.00  0.00     0.116 A 
ATOM     30  N   UNL     1     101.293  -4.971  25.391  1.00  0.00    -0.251 NA
BRANCH  28  31
ATOM     31  C   UNL     1     101.529  -6.335  23.462  1.00  0.00     0.269 C 
ATOM     32  O   UNL     1     100.808  -5.695  22.674  1.00  0.00    -0.268 OA
ATOM     33  N   UNL     1     102.568  -7.165  23.021  1.00  0.00    -0.354 N 
ATOM     34  C   UNL     1     102.902  -7.357  21.628  1.00  0.00     0.143 C 
ATOM     35  H   UNL     1     103.143  -7.638  23.713  1.00  0.00     0.163 HD
ENDBRANCH  28  31
ENDBRANCH  24  25
ENDBRANCH   2  24
TORSDOF 6
ENDMDL
MODEL 14
REMARK VINA RESULT:    -6.596      1.948      2.737
REMARK INTER + INTRA:          -9.410
REMARK INTER:                  -8.812
REMARK INTRA:                  -0.598
REMARK UNBOUND:                -0.501
REMARK SMILES CNC(=O)c1cc(Oc2ccc(NC(=O)Nc3ccc(Cl)c(C(F)(F)F)c3)cc2)ccn1
REMARK SMILES IDX 12 1 9 2 11 3 28 4 10 5 29 6 13 7 16 8 14 9 15 11 17 13
REMARK SMILES IDX 21 14 20 15 22 16 19 17 27 18 18 19 23 20 24 21 25 22 26 23
REMARK SMILES IDX 8 24 7 25 6 26 30 27 5 28 31 29 32 30 3 31 4 32 2 33 1 34
REMARK H PARENT 16 10 13 12 2 35
REMARK Flexibility Score: inf
ROOT
ATOM      1  C   UNL     1      97.226 -12.146  23.492  1.00  0.00     0.043 A 
ATOM      2  C   UNL     1      99.257 -10.330  22.995  1.00  0.00     0.127 A 
ATOM      3  C   UNL     1      98.156 -12.424  22.505  1.00  0.00     0.030 A 
ATOM      4  C   UNL     1      97.290 -10.980  24.238  1.00  0.00     0.030 A 
ATOM      5  C   UNL     1      99.180 -11.509  22.254  1.00  0.00     0.049 A 
ATOM      6  C   UNL     1      98.313 -10.065  23.987  1.00  0.00     0.049 A 
ENDROOT
BRANCH   1   7
ATOM      7  N   UNL     1      96.188 -13.074  23.746  1.00  0.00    -0.308 N 
ATOM      8  N   UNL     1      94.129 -14.021  24.193  1.00  0.00    -0.308 N 
ATOM      9  C   UNL     1      94.830 -12.808  23.987  1.00  0.00     0.323 C 
ATOM     10  H   UNL     1      94.685 -14.871  24.142  1.00  0.00     0.171 HD
ATOM     11  O   UNL     1      94.321 -11.693  24.014  1.00  0.00    -0.248 OA
ATOM     12  H   UNL     1      96.469 -14.052  23.754  1.00  0.00     0.171 HD
BRANCH   8  13
ATOM     13  C   UNL     1      92.773 -14.207  24.462  1.00  0.00     0.043 A 
ATOM     14  Cl  UNL     1      88.393 -14.825  25.369  1.00  0.00    -0.084 Cl
ATOM     15  C   UNL     1      90.062 -14.579  25.001  1.00  0.00     0.053 A 
ATOM     16  C   UNL     1      90.464 -14.074  23.764  1.00  0.00     0.076 A 
ATOM     17  C   UNL     1      91.014 -14.898  25.967  1.00  0.00     0.023 A 
ATOM     18  C   UNL     1      91.819 -13.888  23.495  1.00  0.00     0.040 A 
ATOM     19  C   UNL     1      92.371 -14.712  25.699  1.00  0.00     0.028 A 
BRANCH  16  20
ATOM     20  C   UNL     1      89.474 -13.722  22.701  1.00  0.00     0.417 C 
ATOM     21  F   UNL     1      90.030 -13.088  21.629  1.00  0.00    -0.166 F 
ATOM     22  F   UNL     1      88.825 -14.804  22.182  1.00  0.00    -0.166 F 
ATOM     23  F   UNL     1      88.494 -12.888  23.156  1.00  0.00    -0.166 F 
ENDBRANCH  16  20
ENDBRANCH   8  13
ENDBRANCH   1   7
BRANCH   2  24
ATOM     24  O   UNL     1     100.255  -9.437  22.750  1.00  0.00    -0.457 OA
BRANCH  24  25
ATOM     25  C   UNL     1     100.927  -8.908  23.839  1.00  0.00     0.131 A 
ATOM     26  C   UNL     1     100.786  -7.567  24.131  1.00  0.00     0.081 A 
ATOM     27  C   UNL     1     101.719  -9.732  24.608  1.00  0.00     0.067 A 
ATOM     28  C   UNL     1     101.477  -7.087  25.232  1.00  0.00     0.131 A 
ATOM     29  C   UNL     1     102.369  -9.155  25.688  1.00  0.00     0.116 A 
ATOM     30  N   UNL     1     102.267  -7.848  26.020  1.00  0.00    -0.251 NA
BRANCH  28  31
ATOM     31  C   UNL     1     101.378  -5.685  25.602  1.00  0.00     0.269 C 
ATOM     32  O   UNL     1     101.744  -4.794  24.813  1.00  0.00    -0.268 OA
ATOM     33  N   UNL     1     100.838  -5.396  26.861  1.00  0.00    -0.354 N 
ATOM     34  C   UNL     1     100.653  -4.054  27.363  1.00  0.00     0.143 C 
ATOM     35  H   UNL     1     100.528  -6.166  27.448  1.00  0.00     0.163 HD
ENDBRANCH  28  31
ENDBRANCH  24  25
ENDBRANCH   2  24
TORSDOF 6
ENDMDL
MODEL 15
REMARK VINA RESULT:    -6.586     21.566     24.303
REMARK INTER + INTRA:          -9.397
REMARK INTER:                  -8.896
REMARK INTRA:                  -0.501
REMARK UNBOUND:                -0.501
REMARK SMILES CNC(=O)c1cc(Oc2ccc(NC(=O)Nc3ccc(Cl)c(C(F)(F)F)c3)cc2)ccn1
REMARK SMILES IDX 12 1 9 2 11 3 28 4 10 5 29 6 13 7 16 8 14 9 15 11 17 13
REMARK SMILES IDX 21 14 20 15 22 16 19 17 27 18 18 19 23 20 24 21 25 22 26 23
REMARK SMILES IDX 8 24 7 25 6 26 30 27 5 28 31 29 32 30 3 31 4 32 2 33 1 34
REMARK H PARENT 16 10 13 12 2 35
REMARK Flexibility Score: inf
ROOT
ATOM      1  C   UNL     1      84.232  -4.457   4.188  1.00  0.00     0.043 A 
ATOM      2  C   UNL     1      84.619  -7.022   3.217  1.00  0.00     0.127 A 
ATOM      3  C   UNL     1      85.506  -4.999   4.194  1.00  0.00     0.030 A 
ATOM      4  C   UNL     1      83.147  -5.170   3.706  1.00  0.00     0.030 A 
ATOM      5  C   UNL     1      85.702  -6.291   3.705  1.00  0.00     0.049 A 
ATOM      6  C   UNL     1      83.341  -6.462   3.217  1.00  0.00     0.049 A 
ENDROOT
BRANCH   1   7
ATOM      7  N   UNL     1      84.034  -3.147   4.684  1.00  0.00    -0.308 N 
ATOM      8  N   UNL     1      83.142  -1.288   5.727  1.00  0.00    -0.308 N 
ATOM      9  C   UNL     1      82.947  -2.658   5.427  1.00  0.00     0.323 C 
ATOM     10  H   UNL     1      84.002  -0.874   5.374  1.00  0.00     0.171 HD
ATOM     11  O   UNL     1      81.970  -3.316   5.770  1.00  0.00    -0.248 OA
ATOM     12  H   UNL     1      84.776  -2.483   4.473  1.00  0.00     0.171 HD
BRANCH   8  13
ATOM     13  C   UNL     1      82.309  -0.426   6.439  1.00  0.00     0.043 A 
ATOM     14  Cl  UNL     1      79.599   2.382   8.711  1.00  0.00    -0.084 Cl
ATOM     15  C   UNL     1      80.642   1.299   7.864  1.00  0.00     0.053 A 
ATOM     16  C   UNL     1      81.473   0.411   8.546  1.00  0.00     0.076 A 
ATOM     17  C   UNL     1      80.644   1.325   6.470  1.00  0.00     0.023 A 
ATOM     18  C   UNL     1      82.306  -0.452   7.834  1.00  0.00     0.040 A 
ATOM     19  C   UNL     1      81.478   0.463   5.757  1.00  0.00     0.028 A 
BRANCH  16  20
ATOM     20  C   UNL     1      81.502   0.352  10.040  1.00  0.00     0.417 C 
ATOM     21  F   UNL     1      80.265   0.235  10.604  1.00  0.00    -0.166 F 
ATOM     22  F   UNL     1      82.221  -0.699  10.529  1.00  0.00    -0.166 F 
ATOM     23  F   UNL     1      82.056   1.469  10.595  1.00  0.00    -0.166 F 
ENDBRANCH  16  20
ENDBRANCH   8  13
ENDBRANCH   1   7
BRANCH   2  24
ATOM     24  O   UNL     1      84.809  -8.283   2.740  1.00  0.00    -0.457 OA
BRANCH  24  25
ATOM     25  C   UNL     1      84.825  -9.321   3.656  1.00  0.00     0.131 A 
ATOM     26  C   UNL     1      85.862  -9.406   4.561  1.00  0.00     0.081 A 
ATOM     27  C   UNL     1      83.803 -10.246   3.643  1.00  0.00     0.067 A 
ATOM     28  C   UNL     1      85.831 -10.463   5.457  1.00  0.00     0.131 A 
ATOM     29  C   UNL     1      83.864 -11.265   4.580  1.00  0.00     0.116 A 
ATOM     30  N   UNL     1      84.856 -11.398   5.490  1.00  0.00    -0.251 NA
BRANCH  28  31
ATOM     31  C   UNL     1      86.888 -10.619   6.440  1.00  0.00     0.269 C 
ATOM     32  O   UNL     1      88.084 -10.526   6.106  1.00  0.00    -0.268 OA
ATOM     33  N   UNL     1      86.497 -10.851   7.764  1.00  0.00    -0.354 N 
ATOM     34  C   UNL     1      87.428 -11.003   8.859  1.00  0.00     0.143 C 
ATOM     35  H   UNL     1      85.504 -10.885   7.982  1.00  0.00     0.163 HD
ENDBRANCH  28  31
ENDBRANCH  24  25
ENDBRANCH   2  24
TORSDOF 6
ENDMDL
MODEL 16
REMARK VINA RESULT:    -6.582      2.148      2.643
REMARK INTER + INTRA:          -9.392
REMARK INTER:                  -8.990
REMARK INTRA:                  -0.401
REMARK UNBOUND:                -0.501
REMARK SMILES CNC(=O)c1cc(Oc2ccc(NC(=O)Nc3ccc(Cl)c(C(F)(F)F)c3)cc2)ccn1
REMARK SMILES IDX 12 1 9 2 11 3 28 4 10 5 29 6 13 7 16 8 14 9 15 11 17 13
REMARK SMILES IDX 21 14 20 15 22 16 19 17 27 18 18 19 23 20 24 21 25 22 26 23
REMARK SMILES IDX 8 24 7 25 6 26 30 27 5 28 31 29 32 30 3 31 4 32 2 33 1 34
REMARK H PARENT 16 10 13 12 2 35
REMARK Flexibility Score: inf
ROOT
ATOM      1  C   UNL     1      96.740 -10.692  24.250  1.00  0.00     0.043 A 
ATOM      2  C   UNL     1      99.241  -9.509  24.128  1.00  0.00     0.127 A 
ATOM      3  C   UNL     1      97.774 -11.213  25.010  1.00  0.00     0.030 A 
ATOM      4  C   UNL     1      96.929  -9.591  23.431  1.00  0.00     0.030 A 
ATOM      5  C   UNL     1      99.034 -10.617  24.949  1.00  0.00     0.049 A 
ATOM      6  C   UNL     1      98.189  -8.995  23.369  1.00  0.00     0.049 A 
ENDROOT
BRANCH   1   7
ATOM      7  N   UNL     1      95.462 -11.296  24.313  1.00  0.00    -0.308 N 
ATOM      8  N   UNL     1      93.552 -12.489  23.795  1.00  0.00    -0.308 N 
ATOM      9  C   UNL     1      94.824 -12.073  23.331  1.00  0.00     0.323 C 
ATOM     10  H   UNL     1      93.296 -12.177  24.728  1.00  0.00     0.171 HD
ATOM     11  O   UNL     1      95.294 -12.354  22.234  1.00  0.00    -0.248 OA
ATOM     12  H   UNL     1      94.949 -11.145  25.178  1.00  0.00     0.171 HD
BRANCH   8  13
ATOM     13  C   UNL     1      92.599 -13.268  23.139  1.00  0.00     0.043 A 
ATOM     14  Cl  UNL     1      89.544 -15.811  20.999  1.00  0.00    -0.084 Cl
ATOM     15  C   UNL     1      90.694 -14.828  21.828  1.00  0.00     0.053 A 
ATOM     16  C   UNL     1      90.288 -13.807  22.688  1.00  0.00     0.076 A 
ATOM     17  C   UNL     1      92.052 -15.068  21.623  1.00  0.00     0.023 A 
ATOM     18  C   UNL     1      91.240 -13.028  23.344  1.00  0.00     0.040 A 
ATOM     19  C   UNL     1      93.005 -14.288  22.279  1.00  0.00     0.028 A 
BRANCH  16  20
ATOM     20  C   UNL     1      88.842 -13.516  22.934  1.00  0.00     0.417 C 
ATOM     21  F   UNL     1      88.227 -12.894  21.887  1.00  0.00    -0.166 F 
ATOM     22  F   UNL     1      88.096 -14.633  23.176  1.00  0.00    -0.166 F 
ATOM     23  F   UNL     1      88.649 -12.704  24.012  1.00  0.00    -0.166 F 
ENDBRANCH  16  20
ENDBRANCH   8  13
ENDBRANCH   1   7
BRANCH   2  24
ATOM     24  O   UNL     1     100.471  -8.928  24.067  1.00  0.00    -0.457 OA
BRANCH  24  25
ATOM     25  C   UNL     1     101.198  -9.079  22.899  1.00  0.00     0.131 A 
ATOM     26  C   UNL     1     102.000  -8.046  22.465  1.00  0.00     0.081 A 
ATOM     27  C   UNL     1     101.105 -10.262  22.196  1.00  0.00     0.067 A 
ATOM     28  C   UNL     1     102.708  -8.248  21.291  1.00  0.00     0.131 A 
ATOM     29  C   UNL     1     101.853 -10.365  21.034  1.00  0.00     0.116 A 
ATOM     30  N   UNL     1     102.655  -9.384  20.562  1.00  0.00    -0.251 NA
BRANCH  28  31
ATOM     31  C   UNL     1     103.575  -7.205  20.771  1.00  0.00     0.269 C 
ATOM     32  O   UNL     1     104.570  -6.827  21.417  1.00  0.00    -0.268 OA
ATOM     33  N   UNL     1     103.250  -6.674  19.517  1.00  0.00    -0.354 N 
ATOM     34  C   UNL     1     104.025  -5.650  18.856  1.00  0.00     0.143 C 
ATOM     35  H   UNL     1     102.442  -7.046  19.024  1.00  0.00     0.163 HD
ENDBRANCH  28  31
ENDBRANCH  24  25
ENDBRANCH   2  24
TORSDOF 6
ENDMDL
MODEL 17
REMARK VINA RESULT:    -6.562     20.009     22.719
REMARK INTER + INTRA:          -9.365
REMARK INTER:                  -8.365
REMARK INTRA:                  -1.000
REMARK UNBOUND:                -0.501
REMARK SMILES CNC(=O)c1cc(Oc2ccc(NC(=O)Nc3ccc(Cl)c(C(F)(F)F)c3)cc2)ccn1
REMARK SMILES IDX 12 1 9 2 11 3 28 4 10 5 29 6 13 7 16 8 14 9 15 11 17 13
REMARK SMILES IDX 21 14 20 15 22 16 19 17 27 18 18 19 23 20 24 21 25 22 26 23
REMARK SMILES IDX 8 24 7 25 6 26 30 27 5 28 31 29 32 30 3 31 4 32 2 33 1 34
REMARK H PARENT 16 10 13 12 2 35
REMARK Flexibility Score: inf
ROOT
ATOM      1  C   UNL     1      90.120   1.108   9.299  1.00  0.00     0.043 A 
ATOM      2  C   UNL     1      88.275   0.036   7.534  1.00  0.00     0.127 A 
ATOM      3  C   UNL     1      89.229   0.150   9.750  1.00  0.00     0.030 A 
ATOM      4  C   UNL     1      90.110   1.542   7.983  1.00  0.00     0.030 A 
ATOM      5  C   UNL     1      88.299  -0.390   8.861  1.00  0.00     0.049 A 
ATOM      6  C   UNL     1      89.181   1.002   7.094  1.00  0.00     0.049 A 
ENDROOT
BRANCH   1   7
ATOM      7  N   UNL     1      91.063   1.656  10.201  1.00  0.00    -0.308 N 
ATOM      8  N   UNL     1      92.071   2.934  11.840  1.00  0.00    -0.308 N 
ATOM      9  C   UNL     1      90.870   2.691  11.130  1.00  0.00     0.323 C 
ATOM     10  H   UNL     1      92.864   2.351  11.585  1.00  0.00     0.171 HD
ATOM     11  O   UNL     1      89.819   3.299  11.306  1.00  0.00    -0.248 OA
ATOM     12  H   UNL     1      91.992   1.243  10.166  1.00  0.00     0.171 HD
BRANCH   8  13
ATOM     13  C   UNL     1      92.314   3.872  12.845  1.00  0.00     0.043 A 
ATOM     14  Cl  UNL     1      93.105   6.934  16.067  1.00  0.00    -0.084 Cl
ATOM     15  C   UNL     1      92.799   5.746  14.852  1.00  0.00     0.053 A 
ATOM     16  C   UNL     1      92.558   4.414  15.186  1.00  0.00     0.076 A 
ATOM     17  C   UNL     1      92.798   6.142  13.515  1.00  0.00     0.023 A 
ATOM     18  C   UNL     1      92.314   3.476  14.183  1.00  0.00     0.040 A 
ATOM     19  C   UNL     1      92.555   5.204  12.511  1.00  0.00     0.028 A 
BRANCH  16  20
ATOM     20  C   UNL     1      92.552   3.950  16.607  1.00  0.00     0.417 C 
ATOM     21  F   UNL     1      91.642   4.599  17.388  1.00  0.00    -0.166 F 
ATOM     22  F   UNL     1      92.262   2.624  16.745  1.00  0.00    -0.166 F 
ATOM     23  F   UNL     1      93.758   4.129  17.219  1.00  0.00    -0.166 F 
ENDBRANCH  16  20
ENDBRANCH   8  13
ENDBRANCH   1   7
BRANCH   2  24
ATOM     24  O   UNL     1      87.368  -0.490   6.666  1.00  0.00    -0.457 OA
BRANCH  24  25
ATOM     25  C   UNL     1      86.187   0.204   6.470  1.00  0.00     0.131 A 
ATOM     26  C   UNL     1      85.090  -0.095   7.250  1.00  0.00     0.081 A 
ATOM     27  C   UNL     1      86.133   1.182   5.499  1.00  0.00     0.067 A 
ATOM     28  C   UNL     1      83.933   0.630   7.016  1.00  0.00     0.131 A 
ATOM     29  C   UNL     1      84.930   1.850   5.343  1.00  0.00     0.116 A 
ATOM     30  N   UNL     1      83.824   1.598   6.079  1.00  0.00    -0.251 NA
BRANCH  28  31
ATOM     31  C   UNL     1      82.737   0.372   7.798  1.00  0.00     0.269 C 
ATOM     32  O   UNL     1      81.615   0.698   7.368  1.00  0.00    -0.268 OA
ATOM     33  N   UNL     1      82.908  -0.274   9.029  1.00  0.00    -0.354 N 
ATOM     34  C   UNL     1      81.817  -0.621   9.909  1.00  0.00     0.143 C 
ATOM     35  H   UNL     1      83.846  -0.544   9.312  1.00  0.00     0.163 HD
ENDBRANCH  28  31
ENDBRANCH  24  25
ENDBRANCH   2  24
TORSDOF 6
ENDMDL
MODEL 18
REMARK VINA RESULT:    -6.527     18.065     19.618
REMARK INTER + INTRA:          -9.317
REMARK INTER:                  -8.263
REMARK INTRA:                  -1.054
REMARK UNBOUND:                -0.501
REMARK SMILES CNC(=O)c1cc(Oc2ccc(NC(=O)Nc3ccc(Cl)c(C(F)(F)F)c3)cc2)ccn1
REMARK SMILES IDX 12 1 9 2 11 3 28 4 10 5 29 6 13 7 16 8 14 9 15 11 17 13
REMARK SMILES IDX 21 14 20 15 22 16 19 17 27 18 18 19 23 20 24 21 25 22 26 23
REMARK SMILES IDX 8 24 7 25 6 26 30 27 5 28 31 29 32 30 3 31 4 32 2 33 1 34
REMARK H PARENT 16 10 13 12 2 35
REMARK Flexibility Score: inf
ROOT
ATOM      1  C   UNL     1      88.792 -10.360   6.772  1.00  0.00     0.043 A 
ATOM      2  C   UNL     1      91.515  -9.959   7.082  1.00  0.00     0.127 A 
ATOM      3  C   UNL     1      89.595 -11.423   7.153  1.00  0.00     0.030 A 
ATOM      4  C   UNL     1      89.322  -9.101   6.544  1.00  0.00     0.030 A 
ATOM      5  C   UNL     1      90.967 -11.221   7.309  1.00  0.00     0.049 A 
ATOM      6  C   UNL     1      90.693  -8.899   6.699  1.00  0.00     0.049 A 
ENDROOT
BRANCH   1   7
ATOM      7  N   UNL     1      87.401 -10.566   6.614  1.00  0.00    -0.308 N 
ATOM      8  N   UNL     1      85.314 -10.970   5.709  1.00  0.00    -0.308 N 
ATOM      9  C   UNL     1      86.695 -10.826   5.428  1.00  0.00     0.323 C 
ATOM     10  H   UNL     1      85.046 -10.867   6.685  1.00  0.00     0.171 HD
ATOM     11  O   UNL     1      87.194 -10.916   4.312  1.00  0.00    -0.248 OA
ATOM     12  H   UNL     1      86.853 -10.518   7.469  1.00  0.00     0.171 HD
BRANCH   8  13
ATOM     13  C   UNL     1      84.269 -11.231   4.823  1.00  0.00     0.043 A 
ATOM     14  Cl  UNL     1      80.886 -12.116   1.967  1.00  0.00    -0.084 Cl
ATOM     15  C   UNL     1      82.178 -11.754   3.054  1.00  0.00     0.053 A 
ATOM     16  C   UNL     1      82.666 -10.455   3.190  1.00  0.00     0.076 A 
ATOM     17  C   UNL     1      82.734 -12.792   3.801  1.00  0.00     0.023 A 
ATOM     18  C   UNL     1      83.712 -10.193   4.076  1.00  0.00     0.040 A 
ATOM     19  C   UNL     1      83.780 -12.530   4.687  1.00  0.00     0.028 A 
BRANCH  16  20
ATOM     20  C   UNL     1      82.098  -9.316   2.406  1.00  0.00     0.417 C 
ATOM     21  F   UNL     1      82.677  -8.115   2.694  1.00  0.00    -0.166 F 
ATOM     22  F   UNL     1      82.232  -9.466   1.056  1.00  0.00    -0.166 F 
ATOM     23  F   UNL     1      80.763  -9.145   2.627  1.00  0.00    -0.166 F 
ENDBRANCH  16  20
ENDBRANCH   8  13
ENDBRANCH   1   7
BRANCH   2  24
ATOM     24  O   UNL     1      92.854  -9.762   7.233  1.00  0.00    -0.457 OA
BRANCH  24  25
ATOM     25  C   UNL     1      93.264  -8.801   8.142  1.00  0.00     0.131 A 
ATOM     26  C   UNL     1      92.854  -8.896   9.455  1.00  0.00     0.081 A 
ATOM     27  C   UNL     1      94.076  -7.772   7.714  1.00  0.00     0.067 A 
ATOM     28  C   UNL     1      93.293  -7.911  10.325  1.00  0.00     0.131 A 
ATOM     29  C   UNL     1      94.461  -6.838   8.662  1.00  0.00     0.116 A 
ATOM     30  N   UNL     1      94.089  -6.881   9.961  1.00  0.00    -0.251 NA
BRANCH  28  31
ATOM     31  C   UNL     1      92.903  -7.943  11.723  1.00  0.00     0.269 C 
ATOM     32  O   UNL     1      92.964  -9.003  12.374  1.00  0.00    -0.268 OA
ATOM     33  N   UNL     1      92.483  -6.736  12.295  1.00  0.00    -0.354 N 
ATOM     34  C   UNL     1      92.086  -6.601  13.678  1.00  0.00     0.143 C 
ATOM     35  H   UNL     1      92.484  -5.897  11.721  1.00  0.00     0.163 HD
ENDBRANCH  28  31
ENDBRANCH  24  25
ENDBRANCH   2  24
TORSDOF 6
ENDMDL
MODEL 19
REMARK VINA RESULT:    -6.520      5.850     11.467
REMARK INTER + INTRA:          -9.308
REMARK INTER:                  -8.321
REMARK INTRA:                  -0.987
REMARK UNBOUND:                -0.501
REMARK SMILES CNC(=O)c1cc(Oc2ccc(NC(=O)Nc3ccc(Cl)c(C(F)(F)F)c3)cc2)ccn1
REMARK SMILES IDX 12 1 9 2 11 3 28 4 10 5 29 6 13 7 16 8 14 9 15 11 17 13
REMARK SMILES IDX 21 14 20 15 22 16 19 17 27 18 18 19 23 20 24 21 25 22 26 23
REMARK SMILES IDX 8 24 7 25 6 26 30 27 5 28 31 29 32 30 3 31 4 32 2 33 1 34
REMARK H PARENT 16 10 13 12 2 35
REMARK Flexibility Score: inf
ROOT
ATOM      1  C   UNL     1      95.879 -12.044  23.032  1.00  0.00     0.043 A 
ATOM      2  C   UNL     1      94.212 -14.255  23.016  1.00  0.00     0.127 A 
ATOM      3  C   UNL     1      95.093 -12.307  24.141  1.00  0.00     0.030 A 
ATOM      4  C   UNL     1      95.851 -12.862  21.915  1.00  0.00     0.030 A 
ATOM      5  C   UNL     1      94.253 -13.421  24.133  1.00  0.00     0.049 A 
ATOM      6  C   UNL     1      95.011 -13.976  21.907  1.00  0.00     0.049 A 
ENDROOT
BRANCH   1   7
ATOM      7  N   UNL     1      96.732 -10.914  23.041  1.00  0.00    -0.308 N 
ATOM      8  N   UNL     1      98.561  -9.526  23.296  1.00  0.00    -0.308 N 
ATOM      9  C   UNL     1      98.075 -10.847  23.447  1.00  0.00     0.323 C 
ATOM     10  H   UNL     1      97.896  -8.846  22.933  1.00  0.00     0.171 HD
ATOM     11  O   UNL     1      98.735 -11.790  23.870  1.00  0.00    -0.248 OA
ATOM     12  H   UNL     1      96.312 -10.048  22.711  1.00  0.00     0.171 HD
BRANCH   8  13
ATOM     13  C   UNL     1      99.832  -9.028  23.581  1.00  0.00     0.043 A 
ATOM     14  Cl  UNL     1     103.962  -7.436  24.474  1.00  0.00    -0.084 Cl
ATOM     15  C   UNL     1     102.374  -8.033  24.152  1.00  0.00     0.053 A 
ATOM     16  C   UNL     1     101.306  -7.742  24.999  1.00  0.00     0.076 A 
ATOM     17  C   UNL     1     102.172  -8.821  23.020  1.00  0.00     0.023 A 
ATOM     18  C   UNL     1     100.034  -8.239  24.714  1.00  0.00     0.040 A 
ATOM     19  C   UNL     1     100.901  -9.319  22.734  1.00  0.00     0.028 A 
BRANCH  16  20
ATOM     20  C   UNL     1     101.481  -6.903  26.224  1.00  0.00     0.417 C 
ATOM     21  F   UNL     1     100.388  -6.896  27.041  1.00  0.00    -0.166 F 
ATOM     22  F   UNL     1     102.518  -7.304  27.015  1.00  0.00    -0.166 F 
ATOM     23  F   UNL     1     101.728  -5.594  25.928  1.00  0.00    -0.166 F 
ENDBRANCH  16  20
ENDBRANCH   8  13
ENDBRANCH   1   7
BRANCH   2  24
ATOM     24  O   UNL     1      93.391 -15.341  23.007  1.00  0.00    -0.457 OA
BRANCH  24  25
ATOM     25  C   UNL     1      92.033 -15.123  23.160  1.00  0.00     0.131 A 
ATOM     26  C   UNL     1      91.392 -14.244  22.313  1.00  0.00     0.081 A 
ATOM     27  C   UNL     1      91.350 -15.791  24.154  1.00  0.00     0.067 A 
ATOM     28  C   UNL     1      90.032 -14.062  22.506  1.00  0.00     0.131 A 
ATOM     29  C   UNL     1      89.992 -15.540  24.265  1.00  0.00     0.116 A 
ATOM     30  N   UNL     1      89.313 -14.689  23.463  1.00  0.00    -0.251 NA
BRANCH  28  31
ATOM     31  C   UNL     1      89.288 -13.152  21.652  1.00  0.00     0.269 C 
ATOM     32  O   UNL     1      89.846 -12.164  21.141  1.00  0.00    -0.268 OA
ATOM     33  N   UNL     1      87.940 -13.453  21.422  1.00  0.00    -0.354 N 
ATOM     34  C   UNL     1      87.075 -12.660  20.580  1.00  0.00     0.143 C 
ATOM     35  H   UNL     1      87.548 -14.292  21.843  1.00  0.00     0.163 HD
ENDBRANCH  28  31
ENDBRANCH  24  25
ENDBRANCH   2  24
TORSDOF 6
ENDMDL
MODEL 20
REMARK VINA RESULT:    -6.515     17.745     19.352
REMARK INTER + INTRA:          -9.301
REMARK INTER:                  -8.559
REMARK INTRA:                  -0.742
REMARK UNBOUND:                -0.501
REMARK SMILES CNC(=O)c1cc(Oc2ccc(NC(=O)Nc3ccc(Cl)c(C(F)(F)F)c3)cc2)ccn1
REMARK SMILES IDX 12 1 9 2 11 3 28 4 10 5 29 6 13 7 16 8 14 9 15 11 17 13
REMARK SMILES IDX 21 14 20 15 22 16 19 17 27 18 18 19 23 20 24 21 25 22 26 23
REMARK SMILES IDX 8 24 7 25 6 26 30 27 5 28 31 29 32 30 3 31 4 32 2 33 1 34
REMARK H PARENT 16 10 13 12 2 35
REMARK Flexibility Score: inf
ROOT
ATOM      1  C   UNL     1      88.805 -10.892   6.922  1.00  0.00     0.043 A 
ATOM      2  C   UNL     1      91.513 -10.463   7.312  1.00  0.00     0.127 A 
ATOM      3  C   UNL     1      89.639 -11.977   7.137  1.00  0.00     0.030 A 
ATOM      4  C   UNL     1      89.296  -9.598   6.899  1.00  0.00     0.030 A 
ATOM      5  C   UNL     1      91.003 -11.761   7.333  1.00  0.00     0.049 A 
ATOM      6  C   UNL     1      90.660  -9.381   7.095  1.00  0.00     0.049 A 
ENDROOT
BRANCH   1   7
ATOM      7  N   UNL     1      87.421 -11.112   6.723  1.00  0.00    -0.308 N 
ATOM      8  N   UNL     1      85.326 -11.292   5.767  1.00  0.00    -0.308 N 
ATOM      9  C   UNL     1      86.686 -10.974   5.534  1.00  0.00     0.323 C 
ATOM     10  H   UNL     1      85.089 -11.561   6.718  1.00  0.00     0.171 HD
ATOM     11  O   UNL     1      87.148 -10.630   4.452  1.00  0.00    -0.248 OA
ATOM     12  H   UNL     1      86.903 -11.406   7.547  1.00  0.00     0.171 HD
BRANCH   8  13
ATOM     13  C   UNL     1      84.263 -11.283   4.863  1.00  0.00     0.043 A 
ATOM     14  Cl  UNL     1      80.831 -11.216   1.930  1.00  0.00    -0.084 Cl
ATOM     15  C   UNL     1      82.139 -11.265   3.055  1.00  0.00     0.053 A 
ATOM     16  C   UNL     1      82.435 -12.425   3.772  1.00  0.00     0.076 A 
ATOM     17  C   UNL     1      82.905 -10.115   3.243  1.00  0.00     0.023 A 
ATOM     18  C   UNL     1      83.497 -12.434   4.675  1.00  0.00     0.040 A 
ATOM     19  C   UNL     1      83.968 -10.124   4.146  1.00  0.00     0.028 A 
BRANCH  16  20
ATOM     20  C   UNL     1      81.638 -13.678   3.601  1.00  0.00     0.417 C 
ATOM     21  F   UNL     1      81.571 -14.109   2.309  1.00  0.00    -0.166 F 
ATOM     22  F   UNL     1      82.130 -14.736   4.308  1.00  0.00    -0.166 F 
ATOM     23  F   UNL     1      80.344 -13.532   4.009  1.00  0.00    -0.166 F 
ENDBRANCH  16  20
ENDBRANCH   8  13
ENDBRANCH   1   7
BRANCH   2  24
ATOM     24  O   UNL     1      92.844 -10.252   7.503  1.00  0.00    -0.457 OA
BRANCH  24  25
ATOM     25  C   UNL     1      93.219  -9.182   8.297  1.00  0.00     0.131 A 
ATOM     26  C   UNL     1      92.824  -9.152   9.618  1.00  0.00     0.081 A 
ATOM     27  C   UNL     1      93.981  -8.171   7.751  1.00  0.00     0.067 A 
ATOM     28  C   UNL     1      93.227  -8.061  10.371  1.00  0.00     0.131 A 
ATOM     29  C   UNL     1      94.332  -7.124   8.587  1.00  0.00     0.116 A 
ATOM     30  N   UNL     1      93.973  -7.042   9.888  1.00  0.00    -0.251 NA
BRANCH  28  31
ATOM     31  C   UNL     1      92.850  -7.958  11.770  1.00  0.00     0.269 C 
ATOM     32  O   UNL     1      92.882  -8.959  12.510  1.00  0.00    -0.268 OA
ATOM     33  N   UNL     1      92.477  -6.692  12.238  1.00  0.00    -0.354 N 
ATOM     34  C   UNL     1      92.099  -6.424  13.606  1.00  0.00     0.143 C 
ATOM     35  H   UNL     1      92.500  -5.907  11.593  1.00  0.00     0.163 HD
ENDBRANCH  28  31
ENDBRANCH  24  25
ENDBRANCH   2  24
TORSDOF 6
ENDMDL
