REMARK SMILES CC1(C)S[C@@H]2[C@H](NC(=O)Cc3ccccc3)C(=O)N2[C@H]1[C]([O-])O
REMARK SMILES IDX 9 1 7 2 8 3 6 4 4 5 5 6 2 7 19 8 20 9 1 10 3 11 17 12 18 13
REMARK SMILES IDX 21 14 23 15 22 16 10 17 11 18 12 19 16 20 13 21 15 22 14 23
REMARK H PARENT
REMARK INDEX MAP 5 1 7 2 16 3 11 4 1 5 8 6 9 7 6 8 10 9 13 10 14 11 12 12 2 13
REMARK INDEX MAP 15 14 3 15 4 16 17 17 18 18 19 19 20 20 21 21 22 22 23 23
REMARK Flexibility Score: inf
ROOT
ATOM      1  O   UNL     1       3.304  -1.394   0.986  1.00  0.00    -0.275 OA
ATOM      2  N   UNL     1       0.989  -1.511   1.095  1.00  0.00    -0.341 N 
ATOM      3  C   UNL     1       2.201  -0.905   0.757  1.00  0.00     0.225 C 
ENDROOT
BRANCH   2   4
ATOM      4  C   UNL     1       0.908  -2.815   1.768  1.00  0.00     0.138 C 
ATOM      5  S   UNL     1       0.092  -1.232   4.018  1.00  0.00    -0.126 SA
ATOM      6  C   UNL     1       0.621  -2.819   3.276  1.00  0.00     0.108 C 
ATOM      7  C   UNL     1      -1.437  -2.028   4.725  1.00  0.00     0.034 C 
ATOM      8  N   UNL     1      -0.647  -3.487   2.971  1.00  0.00    -0.320 N 
ATOM      9  C   UNL     1      -1.854  -3.043   3.639  1.00  0.00     0.062 C 
ATOM     10  C   UNL     1      -1.061  -2.657   6.073  1.00  0.00    -0.049 C 
ATOM     11  C   UNL     1      -2.508  -0.956   4.927  1.00  0.00    -0.049 C 
ATOM     12  C   UNL     1      -0.460  -3.512   1.619  1.00  0.00     0.249 C 
ATOM     13  O   UNL     1      -1.173  -3.836   0.696  1.00  0.00    -0.272 OA
BRANCH   9  14
ATOM     14  C   UNL     1      -2.557  -4.265   4.141  1.00  0.00     0.029 C 
ATOM     15  O   UNL     1      -3.802  -3.956   4.577  1.00  0.00    -0.403 OA
ATOM     16  O   UNL     1      -2.081  -5.391   4.157  1.00  0.00    -0.826 OA
ENDBRANCH   9  14
ENDBRANCH   2   4
BRANCH   3  17
ATOM     17  C   UNL     1       1.999   0.434   0.076  1.00  0.00     0.052 C 
BRANCH  17  18
ATOM     18  C   UNL     1       2.592   1.588   0.841  1.00  0.00    -0.039 A 
ATOM     19  C   UNL     1       1.755   2.439   1.549  1.00  0.00    -0.059 A 
ATOM     20  C   UNL     1       3.966   1.784   0.826  1.00  0.00    -0.059 A 
ATOM     21  C   UNL     1       2.303   3.508   2.258  1.00  0.00    -0.062 A 
ATOM     22  C   UNL     1       4.513   2.853   1.536  1.00  0.00    -0.062 A 
ATOM     23  C   UNL     1       3.683   3.716   2.252  1.00  0.00    -0.062 A 
ENDBRANCH  17  18
ENDBRANCH   3  17
TORSDOF 4
