MODEL 1
REMARK VINA RESULT:    -7.309      0.000      0.000
REMARK INTER + INTRA:          -9.775
REMARK INTER:                  -9.161
REMARK INTRA:                  -0.614
REMARK UNBOUND:                -0.757
REMARK SMILES CC1(C)S[C@@H]2[C@H](NC(=O)Cc3ccccc3)C(=O)N2[C@H]1[C]([O-])O
REMARK SMILES IDX 9 1 7 2 8 3 6 4 4 5 5 6 2 7 19 8 20 9 1 10 3 11 17 12 18 13
REMARK SMILES IDX 21 14 23 15 22 16 10 17 11 18 12 19 16 20 13 21 15 22 14 23
REMARK H PARENT
REMARK INDEX MAP 5 1 7 2 16 3 11 4 1 5 8 6 9 7 6 8 10 9 13 10 14 11 12 12 2 13
REMARK INDEX MAP 15 14 3 15 4 16 17 17 18 18 19 19 20 20 21 21 22 22 23 23
REMARK Flexibility Score: inf
ROOT
ATOM      1  O   UNL     1      -0.345   2.941  -1.313  1.00  0.00    -0.275 OA
ATOM      2  N   UNL     1       1.280   4.458  -0.644  1.00  0.00    -0.341 N 
ATOM      3  C   UNL     1      -0.031   4.061  -0.916  1.00  0.00     0.225 C 
ENDROOT
BRANCH   2   4
ATOM      4  C   UNL     1       2.436   3.564  -0.806  1.00  0.00     0.138 C 
ATOM      5  S   UNL     1       3.896   5.807   0.229  1.00  0.00    -0.126 SA
ATOM      6  C   UNL     1       3.830   4.155  -0.555  1.00  0.00     0.108 C 
ATOM      7  C   UNL     1       5.005   5.165   1.581  1.00  0.00     0.034 C 
ATOM      8  N   UNL     1       3.946   3.238   0.583  1.00  0.00    -0.320 N 
ATOM      9  C   UNL     1       4.479   3.736   1.835  1.00  0.00     0.062 C 
ATOM     10  C   UNL     1       6.452   5.229   1.074  1.00  0.00    -0.049 C 
ATOM     11  C   UNL     1       4.844   6.048   2.818  1.00  0.00    -0.049 C 
ATOM     12  C   UNL     1       2.715   2.673   0.421  1.00  0.00     0.249 C 
ATOM     13  O   UNL     1       2.077   1.887   1.085  1.00  0.00    -0.272 OA
BRANCH   9  14
ATOM     14  C   UNL     1       5.503   2.751   2.303  1.00  0.00     0.029 C 
ATOM     15  O   UNL     1       5.649   2.815   3.649  1.00  0.00    -0.403 OA
ATOM     16  O   UNL     1       6.125   1.988   1.578  1.00  0.00    -0.826 OA
ENDBRANCH   9  14
ENDBRANCH   2   4
BRANCH   3  17
ATOM     17  C   UNL     1      -1.028   5.175  -0.670  1.00  0.00     0.052 C 
BRANCH  17  18
ATOM     18  C   UNL     1      -1.071   6.193  -1.778  1.00  0.00    -0.039 A 
ATOM     19  C   UNL     1      -1.040   5.767  -3.098  1.00  0.00    -0.059 A 
ATOM     20  C   UNL     1      -1.140   7.543  -1.464  1.00  0.00    -0.059 A 
ATOM     21  C   UNL     1      -1.080   6.710  -4.126  1.00  0.00    -0.062 A 
ATOM     22  C   UNL     1      -1.180   8.486  -2.491  1.00  0.00    -0.062 A 
ATOM     23  C   UNL     1      -1.150   8.070  -3.823  1.00  0.00    -0.062 A 
ENDBRANCH  17  18
ENDBRANCH   3  17
TORSDOF 4
ENDMDL
MODEL 2
REMARK VINA RESULT:    -7.302      2.018      7.521
REMARK INTER + INTRA:          -9.767
REMARK INTER:                  -9.256
REMARK INTRA:                  -0.511
REMARK UNBOUND:                -0.757
REMARK SMILES CC1(C)S[C@@H]2[C@H](NC(=O)Cc3ccccc3)C(=O)N2[C@H]1[C]([O-])O
REMARK SMILES IDX 9 1 7 2 8 3 6 4 4 5 5 6 2 7 19 8 20 9 1 10 3 11 17 12 18 13
REMARK SMILES IDX 21 14 23 15 22 16 10 17 11 18 12 19 16 20 13 21 15 22 14 23
REMARK H PARENT
REMARK INDEX MAP 5 1 7 2 16 3 11 4 1 5 8 6 9 7 6 8 10 9 13 10 14 11 12 12 2 13
REMARK INDEX MAP 15 14 3 15 4 16 17 17 18 18 19 19 20 20 21 21 22 22 23 23
REMARK Flexibility Score: inf
ROOT
ATOM      1  O   UNL     1       3.911   1.876   1.939  1.00  0.00    -0.275 OA
ATOM      2  N   UNL     1       2.886   3.864   1.319  1.00  0.00    -0.341 N 
ATOM      3  C   UNL     1       3.962   3.090   1.757  1.00  0.00     0.225 C 
ENDROOT
BRANCH   2   4
ATOM      4  C   UNL     1       1.561   3.298   1.025  1.00  0.00     0.138 C 
ATOM      5  S   UNL     1       1.044   5.914  -0.035  1.00  0.00    -0.126 SA
ATOM      6  C   UNL     1       0.485   4.252   0.489  1.00  0.00     0.108 C 
ATOM      7  C   UNL     1       0.279   5.684  -1.717  1.00  0.00     0.034 C 
ATOM      8  N   UNL     1       0.510   3.481  -0.757  1.00  0.00    -0.320 N 
ATOM      9  C   UNL     1       0.512   4.189  -2.021  1.00  0.00     0.062 C 
ATOM     10  C   UNL     1      -1.198   6.092  -1.623  1.00  0.00    -0.049 C 
ATOM     11  C   UNL     1       1.007   6.578  -2.721  1.00  0.00    -0.049 C 
ATOM     12  C   UNL     1       1.469   2.601  -0.347  1.00  0.00     0.249 C 
ATOM     13  O   UNL     1       2.077   1.723  -0.917  1.00  0.00    -0.272 OA
BRANCH   9  14
ATOM     14  C   UNL     1      -0.522   3.544  -2.890  1.00  0.00     0.029 C 
ATOM     15  O   UNL     1      -1.187   2.580  -2.209  1.00  0.00    -0.403 OA
ATOM     16  O   UNL     1      -0.743   3.842  -4.055  1.00  0.00    -0.826 OA
ENDBRANCH   9  14
ENDBRANCH   2   4
BRANCH   3  17
ATOM     17  C   UNL     1       5.208   3.922   1.988  1.00  0.00     0.052 C 
BRANCH  17  18
ATOM     18  C   UNL     1       6.486   3.148   1.805  1.00  0.00    -0.039 A 
ATOM     19  C   UNL     1       7.123   2.611   2.915  1.00  0.00    -0.059 A 
ATOM     20  C   UNL     1       7.009   2.984   0.530  1.00  0.00    -0.059 A 
ATOM     21  C   UNL     1       8.308   1.894   2.746  1.00  0.00    -0.062 A 
ATOM     22  C   UNL     1       8.193   2.266   0.362  1.00  0.00    -0.062 A 
ATOM     23  C   UNL     1       8.843   1.721   1.469  1.00  0.00    -0.062 A 
ENDBRANCH  17  18
ENDBRANCH   3  17
TORSDOF 4
ENDMDL
MODEL 3
REMARK VINA RESULT:    -6.859      2.801      8.297
REMARK INTER + INTRA:          -9.219
REMARK INTER:                  -8.774
REMARK INTRA:                  -0.446
REMARK UNBOUND:                -0.757
REMARK SMILES CC1(C)S[C@@H]2[C@H](NC(=O)Cc3ccccc3)C(=O)N2[C@H]1[C]([O-])O
REMARK SMILES IDX 9 1 7 2 8 3 6 4 4 5 5 6 2 7 19 8 20 9 1 10 3 11 17 12 18 13
REMARK SMILES IDX 21 14 23 15 22 16 10 17 11 18 12 19 16 20 13 21 15 22 14 23
REMARK H PARENT
REMARK INDEX MAP 5 1 7 2 16 3 11 4 1 5 8 6 9 7 6 8 10 9 13 10 14 11 12 12 2 13
REMARK INDEX MAP 15 14 3 15 4 16 17 17 18 18 19 19 20 20 21 21 22 22 23 23
REMARK Flexibility Score: inf
ROOT
ATOM      1  O   UNL     1       6.476   3.429   3.239  1.00  0.00    -0.275 OA
ATOM      2  N   UNL     1       5.411   2.544   1.376  1.00  0.00    -0.341 N 
ATOM      3  C   UNL     1       6.525   2.981   2.096  1.00  0.00     0.225 C 
ENDROOT
BRANCH   2   4
ATOM      4  C   UNL     1       4.046   2.576   1.919  1.00  0.00     0.138 C 
ATOM      5  S   UNL     1       3.930   5.117   0.589  1.00  0.00    -0.126 SA
ATOM      6  C   UNL     1       3.240   3.870   1.737  1.00  0.00     0.108 C 
ATOM      7  C   UNL     1       2.344   5.154  -0.387  1.00  0.00     0.034 C 
ATOM      8  N   UNL     1       2.321   3.105   0.889  1.00  0.00    -0.320 N 
ATOM      9  C   UNL     1       1.863   3.688  -0.356  1.00  0.00     0.062 C 
ATOM     10  C   UNL     1       1.395   6.150   0.294  1.00  0.00    -0.049 C 
ATOM     11  C   UNL     1       2.648   5.612  -1.814  1.00  0.00    -0.049 C 
ATOM     12  C   UNL     1       2.992   1.922   1.003  1.00  0.00     0.249 C 
ATOM     13  O   UNL     1       2.857   0.845   0.467  1.00  0.00    -0.272 OA
BRANCH   9  14
ATOM     14  C   UNL     1       0.380   3.500  -0.413  1.00  0.00     0.029 C 
ATOM     15  O   UNL     1      -0.092   3.050   0.775  1.00  0.00    -0.403 OA
ATOM     16  O   UNL     1      -0.318   3.722  -1.392  1.00  0.00    -0.826 OA
ENDBRANCH   9  14
ENDBRANCH   2   4
BRANCH   3  17
ATOM     17  C   UNL     1       7.809   2.842   1.302  1.00  0.00     0.052 C 
BRANCH  17  18
ATOM     18  C   UNL     1       9.005   2.509   2.154  1.00  0.00    -0.039 A 
ATOM     19  C   UNL     1       9.018   1.325   2.878  1.00  0.00    -0.059 A 
ATOM     20  C   UNL     1      10.075   3.391   2.204  1.00  0.00    -0.059 A 
ATOM     21  C   UNL     1      10.126   1.016   3.667  1.00  0.00    -0.062 A 
ATOM     22  C   UNL     1      11.183   3.081   2.993  1.00  0.00    -0.062 A 
ATOM     23  C   UNL     1      11.209   1.894   3.725  1.00  0.00    -0.062 A 
ENDBRANCH  17  18
ENDBRANCH   3  17
TORSDOF 4
ENDMDL
MODEL 4
REMARK VINA RESULT:    -6.729      2.291      3.638
REMARK INTER + INTRA:          -9.059
REMARK INTER:                  -8.365
REMARK INTRA:                  -0.694
REMARK UNBOUND:                -0.757
REMARK SMILES CC1(C)S[C@@H]2[C@H](NC(=O)Cc3ccccc3)C(=O)N2[C@H]1[C]([O-])O
REMARK SMILES IDX 9 1 7 2 8 3 6 4 4 5 5 6 2 7 19 8 20 9 1 10 3 11 17 12 18 13
REMARK SMILES IDX 21 14 23 15 22 16 10 17 11 18 12 19 16 20 13 21 15 22 14 23
REMARK H PARENT
REMARK INDEX MAP 5 1 7 2 16 3 11 4 1 5 8 6 9 7 6 8 10 9 13 10 14 11 12 12 2 13
REMARK INDEX MAP 15 14 3 15 4 16 17 17 18 18 19 19 20 20 21 21 22 22 23 23
REMARK Flexibility Score: inf
ROOT
ATOM      1  O   UNL     1       2.624   0.930   1.203  1.00  0.00    -0.275 OA
ATOM      2  N   UNL     1       3.772   2.895   0.747  1.00  0.00    -0.341 N 
ATOM      3  C   UNL     1       2.636   2.152   1.074  1.00  0.00     0.225 C 
ENDROOT
BRANCH   2   4
ATOM      4  C   UNL     1       5.089   2.284   0.520  1.00  0.00     0.138 C 
ATOM      5  S   UNL     1       5.828   4.952  -0.239  1.00  0.00    -0.126 SA
ATOM      6  C   UNL     1       6.176   3.159  -0.120  1.00  0.00     0.108 C 
ATOM      7  C   UNL     1       7.413   5.358   0.653  1.00  0.00     0.034 C 
ATOM      8  N   UNL     1       6.923   3.044   1.136  1.00  0.00    -0.320 N 
ATOM      9  C   UNL     1       7.543   4.227   1.696  1.00  0.00     0.062 C 
ATOM     10  C   UNL     1       8.541   5.399  -0.386  1.00  0.00    -0.049 C 
ATOM     11  C   UNL     1       7.269   6.723   1.325  1.00  0.00    -0.049 C 
ATOM     12  C   UNL     1       5.995   2.268   1.768  1.00  0.00     0.249 C 
ATOM     13  O   UNL     1       5.897   1.867   2.906  1.00  0.00    -0.272 OA
BRANCH   9  14
ATOM     14  C   UNL     1       8.945   3.858   2.066  1.00  0.00     0.029 C 
ATOM     15  O   UNL     1       9.281   2.657   1.535  1.00  0.00    -0.403 OA
ATOM     16  O   UNL     1       9.692   4.541   2.752  1.00  0.00    -0.826 OA
ENDBRANCH   9  14
ENDBRANCH   2   4
BRANCH   3  17
ATOM     17  C   UNL     1       1.411   3.027   1.249  1.00  0.00     0.052 C 
BRANCH  17  18
ATOM     18  C   UNL     1       1.041   3.792   0.005  1.00  0.00    -0.039 A 
ATOM     19  C   UNL     1       1.060   5.179   0.026  1.00  0.00    -0.059 A 
ATOM     20  C   UNL     1       0.684   3.098  -1.143  1.00  0.00    -0.059 A 
ATOM     21  C   UNL     1       0.717   5.888  -1.126  1.00  0.00    -0.062 A 
ATOM     22  C   UNL     1       0.342   3.807  -2.294  1.00  0.00    -0.062 A 
ATOM     23  C   UNL     1       0.358   5.202  -2.286  1.00  0.00    -0.062 A 
ENDBRANCH  17  18
ENDBRANCH   3  17
TORSDOF 4
ENDMDL
MODEL 5
REMARK VINA RESULT:    -6.645      2.541      7.015
REMARK INTER + INTRA:          -8.955
REMARK INTER:                  -8.283
REMARK INTRA:                  -0.673
REMARK UNBOUND:                -0.757
REMARK SMILES CC1(C)S[C@@H]2[C@H](NC(=O)Cc3ccccc3)C(=O)N2[C@H]1[C]([O-])O
REMARK SMILES IDX 9 1 7 2 8 3 6 4 4 5 5 6 2 7 19 8 20 9 1 10 3 11 17 12 18 13
REMARK SMILES IDX 21 14 23 15 22 16 10 17 11 18 12 19 16 20 13 21 15 22 14 23
REMARK H PARENT
REMARK INDEX MAP 5 1 7 2 16 3 11 4 1 5 8 6 9 7 6 8 10 9 13 10 14 11 12 12 2 13
REMARK INDEX MAP 15 14 3 15 4 16 17 17 18 18 19 19 20 20 21 21 22 22 23 23
REMARK Flexibility Score: inf
ROOT
ATOM      1  O   UNL     1       6.915   2.148   2.772  1.00  0.00    -0.275 OA
ATOM      2  N   UNL     1       5.588   2.509   0.903  1.00  0.00    -0.341 N 
ATOM      3  C   UNL     1       6.804   2.313   1.560  1.00  0.00     0.225 C 
ENDROOT
BRANCH   2   4
ATOM      4  C   UNL     1       4.296   2.537   1.604  1.00  0.00     0.138 C 
ATOM      5  S   UNL     1       4.036   5.097   0.332  1.00  0.00    -0.126 SA
ATOM      6  C   UNL     1       3.480   3.835   1.536  1.00  0.00     0.108 C 
ATOM      7  C   UNL     1       2.346   5.153  -0.449  1.00  0.00     0.034 C 
ATOM      8  N   UNL     1       2.464   3.085   0.792  1.00  0.00    -0.320 N 
ATOM      9  C   UNL     1       1.865   3.687  -0.382  1.00  0.00     0.062 C 
ATOM     10  C   UNL     1       1.489   6.141   0.353  1.00  0.00    -0.049 C 
ATOM     11  C   UNL     1       2.482   5.630  -1.895  1.00  0.00    -0.049 C 
ATOM     12  C   UNL     1       3.139   1.899   0.810  1.00  0.00     0.249 C 
ATOM     13  O   UNL     1       2.937   0.830   0.278  1.00  0.00    -0.272 OA
BRANCH   9  14
ATOM     14  C   UNL     1       0.385   3.505  -0.266  1.00  0.00     0.029 C 
ATOM     15  O   UNL     1       0.057   3.011   0.952  1.00  0.00    -0.403 OA
ATOM     16  O   UNL     1      -0.425   3.765  -1.144  1.00  0.00    -0.826 OA
ENDBRANCH   9  14
ENDBRANCH   2   4
BRANCH   3  17
ATOM     17  C   UNL     1       7.980   2.332   0.603  1.00  0.00     0.052 C 
BRANCH  17  18
ATOM     18  C   UNL     1       8.359   3.717   0.151  1.00  0.00    -0.039 A 
ATOM     19  C   UNL     1       8.937   4.596   1.056  1.00  0.00    -0.059 A 
ATOM     20  C   UNL     1       8.124   4.095  -1.164  1.00  0.00    -0.059 A 
ATOM     21  C   UNL     1       9.289   5.880   0.637  1.00  0.00    -0.062 A 
ATOM     22  C   UNL     1       8.476   5.378  -1.582  1.00  0.00    -0.062 A 
ATOM     23  C   UNL     1       9.058   6.271  -0.682  1.00  0.00    -0.062 A 
ENDBRANCH  17  18
ENDBRANCH   3  17
TORSDOF 4
ENDMDL
