MODEL 1
REMARK VINA RESULT:    -6.057      0.000      0.000
REMARK INTER + INTRA:         -10.070
REMARK INTER:                  -9.102
REMARK INTRA:                  -0.968
REMARK UNBOUND:                -0.826
REMARK SMILES CCCOC(=O)C1CS[C@@H]([C@H](C=O)[C@@H](C)OC(C)=O)N1
REMARK SMILES IDX 9 2 8 3 7 4 20 5 10 6 5 7 6 8 4 9 3 10 2 11 1 12 11 13 12 14
REMARK SMILES IDX 13 15 14 16 15 17 16 18 17 19 19 20 18 21
REMARK H PARENT 20 1
REMARK Flexibility Score: inf
ROOT
ATOM      1  H   UNL     1      63.914  23.716   9.592  1.00  0.00     0.124 HD
ATOM      2  S   UNL     1      65.104  20.734   8.663  1.00  0.00    -0.140 SA
ATOM      3  C   UNL     1      64.915  21.027  10.413  1.00  0.00     0.102 C 
ATOM      4  C   UNL     1      64.745  22.323  10.721  1.00  0.00     0.175 C 
ATOM      5  N   UNL     1      64.780  23.196   9.605  1.00  0.00    -0.291 NA
ATOM      6  C   UNL     1      64.944  22.554   8.281  1.00  0.00     0.126 C 
ENDROOT
BRANCH   4   7
ATOM      7  C   UNL     1      64.535  22.834  12.089  1.00  0.00     0.324 C 
ATOM      8  O   UNL     1      63.529  23.299  12.553  1.00  0.00    -0.250 OA
BRANCH   7   9
ATOM      9  O   UNL     1      65.688  22.690  12.718  1.00  0.00    -0.465 OA
BRANCH   9  10
ATOM     10  C   UNL     1      66.779  23.650  12.414  1.00  0.00     0.232 C 
BRANCH  10  11
ATOM     11  C   UNL     1      66.522  25.068  12.786  1.00  0.00     0.038 C 
ATOM     12  C   UNL     1      67.288  25.872  13.254  1.00  0.00     0.007 C 
ENDBRANCH  10  11
ENDBRANCH   9  10
ENDBRANCH   7   9
ENDBRANCH   4   7
BRANCH   6  13
ATOM     13  C   UNL     1      63.650  23.040   7.622  1.00  0.00     0.120 C 
BRANCH  13  14
ATOM     14  C   UNL     1      62.512  22.059   7.953  1.00  0.00     0.234 C 
ATOM     15  O   UNL     1      61.750  22.280   8.899  1.00  0.00    -0.303 OA
ENDBRANCH  13  14
BRANCH  13  16
ATOM     16  C   UNL     1      63.846  23.052   6.182  1.00  0.00     0.186 C 
ATOM     17  C   UNL     1      62.834  22.186   5.495  1.00  0.00     0.054 C 
BRANCH  16  18
ATOM     18  O   UNL     1      63.905  24.433   5.685  1.00  0.00    -0.462 OA
BRANCH  18  19
ATOM     19  C   UNL     1      65.126  25.009   5.390  1.00  0.00     0.302 C 
ATOM     20  O   UNL     1      66.006  25.200   6.198  1.00  0.00    -0.253 OA
ATOM     21  C   UNL     1      65.310  25.339   3.958  1.00  0.00     0.139 C 
ENDBRANCH  18  19
ENDBRANCH  16  18
ENDBRANCH  13  16
ENDBRANCH   6  13
TORSDOF 9
ENDMDL
MODEL 2
REMARK VINA RESULT:    -5.874      3.807      6.525
REMARK INTER + INTRA:          -9.790
REMARK INTER:                  -8.691
REMARK INTRA:                  -1.099
REMARK UNBOUND:                -0.826
REMARK SMILES CCCOC(=O)C1CS[C@@H]([C@H](C=O)[C@@H](C)OC(C)=O)N1
REMARK SMILES IDX 9 2 8 3 7 4 20 5 10 6 5 7 6 8 4 9 3 10 2 11 1 12 11 13 12 14
REMARK SMILES IDX 13 15 14 16 15 17 16 18 17 19 19 20 18 21
REMARK H PARENT 20 1
REMARK Flexibility Score: inf
ROOT
ATOM      1  H   UNL     1      66.890  21.278  12.476  1.00  0.00     0.124 HD
ATOM      2  S   UNL     1      65.642  20.102   9.607  1.00  0.00    -0.140 SA
ATOM      3  C   UNL     1      64.962  21.632  10.226  1.00  0.00     0.102 C 
ATOM      4  C   UNL     1      65.271  21.871  11.510  1.00  0.00     0.175 C 
ATOM      5  N   UNL     1      66.044  20.853  12.122  1.00  0.00    -0.291 NA
ATOM      6  C   UNL     1      66.434  19.721  11.252  1.00  0.00     0.126 C 
ENDROOT
BRANCH   4   7
ATOM      7  C   UNL     1      64.863  23.078  12.254  1.00  0.00     0.324 C 
ATOM      8  O   UNL     1      63.754  23.524  12.381  1.00  0.00    -0.250 OA
BRANCH   7   9
ATOM      9  O   UNL     1      65.970  23.593  12.758  1.00  0.00    -0.465 OA
BRANCH   9  10
ATOM     10  C   UNL     1      66.768  24.512  11.908  1.00  0.00     0.232 C 
BRANCH  10  11
ATOM     11  C   UNL     1      67.013  25.870  12.468  1.00  0.00     0.038 C 
ATOM     12  C   UNL     1      67.345  26.172  13.585  1.00  0.00     0.007 C 
ENDBRANCH  10  11
ENDBRANCH   9  10
ENDBRANCH   7   9
ENDBRANCH   4   7
BRANCH   6  13
ATOM     13  C   UNL     1      67.956  19.849  11.367  1.00  0.00     0.120 C 
BRANCH  13  14
ATOM     14  C   UNL     1      68.622  18.881  10.374  1.00  0.00     0.234 C 
ATOM     15  O   UNL     1      69.037  19.288   9.285  1.00  0.00    -0.303 OA
ENDBRANCH  13  14
BRANCH  13  16
ATOM     16  C   UNL     1      68.347  19.472  12.714  1.00  0.00     0.186 C 
ATOM     17  C   UNL     1      69.070  18.159  12.716  1.00  0.00     0.054 C 
BRANCH  16  18
ATOM     18  O   UNL     1      69.076  20.570  13.362  1.00  0.00    -0.462 OA
BRANCH  18  19
ATOM     19  C   UNL     1      68.585  21.133  14.524  1.00  0.00     0.302 C 
ATOM     20  O   UNL     1      67.641  21.888  14.573  1.00  0.00    -0.253 OA
ATOM     21  C   UNL     1      69.283  20.693  15.753  1.00  0.00     0.139 C 
ENDBRANCH  18  19
ENDBRANCH  16  18
ENDBRANCH  13  16
ENDBRANCH   6  13
TORSDOF 9
ENDMDL
MODEL 3
REMARK VINA RESULT:    -5.874      2.463      3.368
REMARK INTER + INTRA:          -9.790
REMARK INTER:                  -8.788
REMARK INTRA:                  -1.002
REMARK UNBOUND:                -0.826
REMARK SMILES CCCOC(=O)C1CS[C@@H]([C@H](C=O)[C@@H](C)OC(C)=O)N1
REMARK SMILES IDX 9 2 8 3 7 4 20 5 10 6 5 7 6 8 4 9 3 10 2 11 1 12 11 13 12 14
REMARK SMILES IDX 13 15 14 16 15 17 16 18 17 19 19 20 18 21
REMARK H PARENT 20 1
REMARK Flexibility Score: inf
ROOT
ATOM      1  H   UNL     1      64.382  21.509   9.841  1.00  0.00     0.124 HD
ATOM      2  S   UNL     1      66.883  19.636  11.028  1.00  0.00    -0.140 SA
ATOM      3  C   UNL     1      66.239  20.910  12.099  1.00  0.00     0.102 C 
ATOM      4  C   UNL     1      65.478  21.812  11.458  1.00  0.00     0.175 C 
ATOM      5  N   UNL     1      65.365  21.589  10.063  1.00  0.00    -0.291 NA
ATOM      6  C   UNL     1      66.048  20.386   9.538  1.00  0.00     0.126 C 
ENDROOT
BRANCH   4   7
ATOM      7  C   UNL     1      64.800  22.946  12.113  1.00  0.00     0.324 C 
ATOM      8  O   UNL     1      63.719  23.403  11.857  1.00  0.00    -0.250 OA
BRANCH   7   9
ATOM      9  O   UNL     1      65.627  23.382  13.046  1.00  0.00    -0.465 OA
BRANCH   9  10
ATOM     10  C   UNL     1      66.438  24.592  12.759  1.00  0.00     0.232 C 
BRANCH  10  11
ATOM     11  C   UNL     1      67.798  24.623  13.361  1.00  0.00     0.038 C 
ATOM     12  C   UNL     1      68.603  23.730  13.444  1.00  0.00     0.007 C 
ENDBRANCH  10  11
ENDBRANCH   9  10
ENDBRANCH   7   9
ENDBRANCH   4   7
BRANCH   6  13
ATOM     13  C   UNL     1      64.832  19.662   8.952  1.00  0.00     0.120 C 
BRANCH  13  14
ATOM     14  C   UNL     1      65.259  18.264   8.469  1.00  0.00     0.234 C 
ATOM     15  O   UNL     1      64.657  17.258   8.854  1.00  0.00    -0.303 OA
ENDBRANCH  13  14
BRANCH  13  16
ATOM     16  C   UNL     1      64.354  20.420   7.809  1.00  0.00     0.186 C 
ATOM     17  C   UNL     1      64.726  19.746   6.523  1.00  0.00     0.054 C 
BRANCH  16  18
ATOM     18  O   UNL     1      62.921  20.713   7.951  1.00  0.00    -0.462 OA
BRANCH  18  19
ATOM     19  C   UNL     1      62.502  22.007   8.194  1.00  0.00     0.302 C 
ATOM     20  O   UNL     1      62.125  22.414   9.268  1.00  0.00    -0.253 OA
ATOM     21  C   UNL     1      62.600  22.905   7.021  1.00  0.00     0.139 C 
ENDBRANCH  18  19
ENDBRANCH  16  18
ENDBRANCH  13  16
ENDBRANCH   6  13
TORSDOF 9
ENDMDL
MODEL 4
REMARK VINA RESULT:    -5.811      4.384      6.188
REMARK INTER + INTRA:          -9.695
REMARK INTER:                  -9.683
REMARK INTRA:                  -0.011
REMARK UNBOUND:                -0.826
REMARK SMILES CCCOC(=O)C1CS[C@@H]([C@H](C=O)[C@@H](C)OC(C)=O)N1
REMARK SMILES IDX 9 2 8 3 7 4 20 5 10 6 5 7 6 8 4 9 3 10 2 11 1 12 11 13 12 14
REMARK SMILES IDX 13 15 14 16 15 17 16 18 17 19 19 20 18 21
REMARK H PARENT 20 1
REMARK Flexibility Score: inf
ROOT
ATOM      1  H   UNL     1      67.470  20.574  13.330  1.00  0.00     0.124 HD
ATOM      2  S   UNL     1      66.217  20.272  10.246  1.00  0.00    -0.140 SA
ATOM      3  C   UNL     1      66.751  18.776  11.060  1.00  0.00     0.102 C 
ATOM      4  C   UNL     1      67.522  19.000  12.136  1.00  0.00     0.175 C 
ATOM      5  N   UNL     1      67.781  20.370  12.390  1.00  0.00    -0.291 NA
ATOM      6  C   UNL     1      67.130  21.336  11.477  1.00  0.00     0.126 C 
ENDROOT
BRANCH   4   7
ATOM      7  C   UNL     1      68.069  17.941  13.004  1.00  0.00     0.324 C 
ATOM      8  O   UNL     1      67.565  16.887  13.285  1.00  0.00    -0.250 OA
BRANCH   7   9
ATOM      9  O   UNL     1      69.238  18.382  13.433  1.00  0.00    -0.465 OA
BRANCH   9  10
ATOM     10  C   UNL     1      69.453  18.494  14.898  1.00  0.00     0.232 C 
BRANCH  10  11
ATOM     11  C   UNL     1      69.813  19.848  15.402  1.00  0.00     0.038 C 
ATOM     12  C   UNL     1      69.088  20.698  15.852  1.00  0.00     0.007 C 
ENDBRANCH  10  11
ENDBRANCH   9  10
ENDBRANCH   7   9
ENDBRANCH   4   7
BRANCH   6  13
ATOM     13  C   UNL     1      66.306  22.115  12.507  1.00  0.00     0.120 C 
BRANCH  13  14
ATOM     14  C   UNL     1      64.977  22.552  11.867  1.00  0.00     0.234 C 
ATOM     15  O   UNL     1      64.019  22.877  12.574  1.00  0.00    -0.303 OA
ENDBRANCH  13  14
BRANCH  13  16
ATOM     16  C   UNL     1      67.051  23.305  12.884  1.00  0.00     0.186 C 
ATOM     17  C   UNL     1      68.282  23.457  12.042  1.00  0.00     0.054 C 
BRANCH  16  18
ATOM     18  O   UNL     1      66.168  24.479  12.892  1.00  0.00    -0.462 OA
BRANCH  18  19
ATOM     19  C   UNL     1      66.672  25.723  12.565  1.00  0.00     0.302 C 
ATOM     20  O   UNL     1      66.466  26.291  11.517  1.00  0.00    -0.253 OA
ATOM     21  C   UNL     1      67.464  26.359  13.643  1.00  0.00     0.139 C 
ENDBRANCH  18  19
ENDBRANCH  16  18
ENDBRANCH  13  16
ENDBRANCH   6  13
TORSDOF 9
ENDMDL
MODEL 5
REMARK VINA RESULT:    -5.803      4.161      6.072
REMARK INTER + INTRA:          -9.682
REMARK INTER:                  -9.030
REMARK INTRA:                  -0.651
REMARK UNBOUND:                -0.826
REMARK SMILES CCCOC(=O)C1CS[C@@H]([C@H](C=O)[C@@H](C)OC(C)=O)N1
REMARK SMILES IDX 9 2 8 3 7 4 20 5 10 6 5 7 6 8 4 9 3 10 2 11 1 12 11 13 12 14
REMARK SMILES IDX 13 15 14 16 15 17 16 18 17 19 19 20 18 21
REMARK H PARENT 20 1
REMARK Flexibility Score: inf
ROOT
ATOM      1  H   UNL     1      67.160  20.470  12.678  1.00  0.00     0.124 HD
ATOM      2  S   UNL     1      65.660  20.554   9.692  1.00  0.00    -0.140 SA
ATOM      3  C   UNL     1      66.486  19.039  10.147  1.00  0.00     0.102 C 
ATOM      4  C   UNL     1      67.321  19.179  11.190  1.00  0.00     0.175 C 
ATOM      5  N   UNL     1      67.401  20.500  11.697  1.00  0.00    -0.291 NA
ATOM      6  C   UNL     1      66.527  21.501  11.046  1.00  0.00     0.126 C 
ENDROOT
BRANCH   4   7
ATOM      7  C   UNL     1      68.101  18.078  11.786  1.00  0.00     0.324 C 
ATOM      8  O   UNL     1      67.873  16.900  11.729  1.00  0.00    -0.250 OA
BRANCH   7   9
ATOM      9  O   UNL     1      69.115  18.644  12.416  1.00  0.00    -0.465 OA
BRANCH   9  10
ATOM     10  C   UNL     1      69.319  18.322  13.851  1.00  0.00     0.232 C 
BRANCH  10  11
ATOM     11  C   UNL     1      69.971  19.380  14.670  1.00  0.00     0.038 C 
ATOM     12  C   UNL     1      69.580  19.887  15.691  1.00  0.00     0.007 C 
ENDBRANCH  10  11
ENDBRANCH   9  10
ENDBRANCH   7   9
ENDBRANCH   4   7
BRANCH   6  13
ATOM     13  C   UNL     1      65.706  21.927  12.267  1.00  0.00     0.120 C 
BRANCH  13  14
ATOM     14  C   UNL     1      64.383  22.555  11.794  1.00  0.00     0.234 C 
ATOM     15  O   UNL     1      63.757  23.323  12.530  1.00  0.00    -0.303 OA
ENDBRANCH  13  14
BRANCH  13  16
ATOM     16  C   UNL     1      66.460  22.932  12.998  1.00  0.00     0.186 C 
ATOM     17  C   UNL     1      67.278  22.304  14.086  1.00  0.00     0.054 C 
BRANCH  16  18
ATOM     18  O   UNL     1      67.225  23.774  12.069  1.00  0.00    -0.462 OA
BRANCH  18  19
ATOM     19  C   UNL     1      67.013  25.139  12.042  1.00  0.00     0.302 C 
ATOM     20  O   UNL     1      66.524  25.737  11.111  1.00  0.00    -0.253 OA
ATOM     21  C   UNL     1      67.390  25.836  13.293  1.00  0.00     0.139 C 
ENDBRANCH  18  19
ENDBRANCH  16  18
ENDBRANCH  13  16
ENDBRANCH   6  13
TORSDOF 9
ENDMDL
MODEL 6
REMARK VINA RESULT:    -5.798      4.674      6.994
REMARK INTER + INTRA:          -9.674
REMARK INTER:                  -8.216
REMARK INTRA:                  -1.459
REMARK UNBOUND:                -0.826
REMARK SMILES CCCOC(=O)C1CS[C@@H]([C@H](C=O)[C@@H](C)OC(C)=O)N1
REMARK SMILES IDX 9 2 8 3 7 4 20 5 10 6 5 7 6 8 4 9 3 10 2 11 1 12 11 13 12 14
REMARK SMILES IDX 13 15 14 16 15 17 16 18 17 19 19 20 18 21
REMARK H PARENT 20 1
REMARK Flexibility Score: inf
ROOT
ATOM      1  H   UNL     1      67.692  20.134  12.719  1.00  0.00     0.124 HD
ATOM      2  S   UNL     1      69.659  19.431  15.328  1.00  0.00    -0.140 SA
ATOM      3  C   UNL     1      68.949  21.067  15.259  1.00  0.00     0.102 C 
ATOM      4  C   UNL     1      68.448  21.380  14.054  1.00  0.00     0.175 C 
ATOM      5  N   UNL     1      68.608  20.367  13.076  1.00  0.00    -0.291 NA
ATOM      6  C   UNL     1      69.248  19.114  13.536  1.00  0.00     0.126 C 
ENDROOT
BRANCH   4   7
ATOM      7  C   UNL     1      67.778  22.655  13.735  1.00  0.00     0.324 C 
ATOM      8  O   UNL     1      68.273  23.748  13.661  1.00  0.00    -0.250 OA
BRANCH   7   9
ATOM      9  O   UNL     1      66.502  22.367  13.553  1.00  0.00    -0.465 OA
BRANCH   9  10
ATOM     10  C   UNL     1      65.750  23.124  12.520  1.00  0.00     0.232 C 
BRANCH  10  11
ATOM     11  C   UNL     1      64.464  22.520  12.077  1.00  0.00     0.038 C 
ATOM     12  C   UNL     1      64.022  22.434  10.960  1.00  0.00     0.007 C 
ENDBRANCH  10  11
ENDBRANCH   9  10
ENDBRANCH   7   9
ENDBRANCH   4   7
BRANCH   6  13
ATOM     13  C   UNL     1      68.110  18.139  13.219  1.00  0.00     0.120 C 
BRANCH  13  14
ATOM     14  C   UNL     1      68.534  16.716  13.626  1.00  0.00     0.234 C 
ATOM     15  O   UNL     1      68.157  16.234  14.698  1.00  0.00    -0.303 OA
ENDBRANCH  13  14
BRANCH  13  16
ATOM     16  C   UNL     1      67.876  18.159  11.785  1.00  0.00     0.186 C 
ATOM     17  C   UNL     1      68.001  16.784  11.201  1.00  0.00     0.054 C 
BRANCH  16  18
ATOM     18  O   UNL     1      66.609  18.837  11.483  1.00  0.00    -0.462 OA
BRANCH  18  19
ATOM     19  C   UNL     1      66.552  19.774  10.470  1.00  0.00     0.302 C 
ATOM     20  O   UNL     1      67.225  20.778  10.427  1.00  0.00    -0.253 OA
ATOM     21  C   UNL     1      65.617  19.428   9.375  1.00  0.00     0.139 C 
ENDBRANCH  18  19
ENDBRANCH  16  18
ENDBRANCH  13  16
ENDBRANCH   6  13
TORSDOF 9
ENDMDL
MODEL 7
REMARK VINA RESULT:    -5.777      3.200      4.424
REMARK INTER + INTRA:          -9.642
REMARK INTER:                  -8.500
REMARK INTRA:                  -1.142
REMARK UNBOUND:                -0.826
REMARK SMILES CCCOC(=O)C1CS[C@@H]([C@H](C=O)[C@@H](C)OC(C)=O)N1
REMARK SMILES IDX 9 2 8 3 7 4 20 5 10 6 5 7 6 8 4 9 3 10 2 11 1 12 11 13 12 14
REMARK SMILES IDX 13 15 14 16 15 17 16 18 17 19 19 20 18 21
REMARK H PARENT 20 1
REMARK Flexibility Score: inf
ROOT
ATOM      1  H   UNL     1      66.286  21.363  10.799  1.00  0.00     0.124 HD
ATOM      2  S   UNL     1      68.323  18.848  11.635  1.00  0.00    -0.140 SA
ATOM      3  C   UNL     1      68.223  20.226  12.765  1.00  0.00     0.102 C 
ATOM      4  C   UNL     1      67.653  21.316  12.227  1.00  0.00     0.175 C 
ATOM      5  N   UNL     1      67.275  21.164  10.869  1.00  0.00    -0.291 NA
ATOM      6  C   UNL     1      67.513  19.831  10.272  1.00  0.00     0.126 C 
ENDROOT
BRANCH   4   7
ATOM      7  C   UNL     1      67.420  22.579  12.952  1.00  0.00     0.324 C 
ATOM      8  O   UNL     1      66.900  22.725  14.026  1.00  0.00    -0.250 OA
BRANCH   7   9
ATOM      9  O   UNL     1      67.891  23.541  12.179  1.00  0.00    -0.465 OA
BRANCH   9  10
ATOM     10  C   UNL     1      66.986  24.662  11.821  1.00  0.00     0.232 C 
BRANCH  10  11
ATOM     11  C   UNL     1      67.278  25.969  12.471  1.00  0.00     0.038 C 
ATOM     12  C   UNL     1      67.487  26.198  13.635  1.00  0.00     0.007 C 
ENDBRANCH  10  11
ENDBRANCH   9  10
ENDBRANCH   7   9
ENDBRANCH   4   7
BRANCH   6  13
ATOM     13  C   UNL     1      66.071  19.483   9.891  1.00  0.00     0.120 C 
BRANCH  13  14
ATOM     14  C   UNL     1      66.079  18.301   8.905  1.00  0.00     0.234 C 
ATOM     15  O   UNL     1      66.017  17.140   9.319  1.00  0.00    -0.303 OA
ENDBRANCH  13  14
BRANCH  13  16
ATOM     16  C   UNL     1      65.482  20.634   9.228  1.00  0.00     0.186 C 
ATOM     17  C   UNL     1      65.441  20.436   7.743  1.00  0.00     0.054 C 
BRANCH  16  18
ATOM     18  O   UNL     1      64.187  20.967   9.835  1.00  0.00    -0.462 OA
BRANCH  18  19
ATOM     19  C   UNL     1      63.889  22.278  10.151  1.00  0.00     0.302 C 
ATOM     20  O   UNL     1      63.505  23.104   9.355  1.00  0.00    -0.253 OA
ATOM     21  C   UNL     1      64.027  22.601  11.590  1.00  0.00     0.139 C 
ENDBRANCH  18  19
ENDBRANCH  16  18
ENDBRANCH  13  16
ENDBRANCH   6  13
TORSDOF 9
ENDMDL
MODEL 8
REMARK VINA RESULT:    -5.772      1.567      1.919
REMARK INTER + INTRA:          -9.634
REMARK INTER:                  -8.935
REMARK INTRA:                  -0.699
REMARK UNBOUND:                -0.826
REMARK SMILES CCCOC(=O)C1CS[C@@H]([C@H](C=O)[C@@H](C)OC(C)=O)N1
REMARK SMILES IDX 9 2 8 3 7 4 20 5 10 6 5 7 6 8 4 9 3 10 2 11 1 12 11 13 12 14
REMARK SMILES IDX 13 15 14 16 15 17 16 18 17 19 19 20 18 21
REMARK H PARENT 20 1
REMARK Flexibility Score: inf
ROOT
ATOM      1  H   UNL     1      63.862  23.673   9.544  1.00  0.00     0.124 HD
ATOM      2  S   UNL     1      65.001  20.726   8.455  1.00  0.00    -0.140 SA
ATOM      3  C   UNL     1      65.241  21.105  10.182  1.00  0.00     0.102 C 
ATOM      4  C   UNL     1      65.056  22.402  10.474  1.00  0.00     0.175 C 
ATOM      5  N   UNL     1      64.740  23.211   9.354  1.00  0.00    -0.291 NA
ATOM      6  C   UNL     1      64.611  22.506   8.058  1.00  0.00     0.126 C 
ENDROOT
BRANCH   4   7
ATOM      7  C   UNL     1      65.161  22.975  11.829  1.00  0.00     0.324 C 
ATOM      8  O   UNL     1      64.274  23.170  12.616  1.00  0.00    -0.250 OA
BRANCH   7   9
ATOM      9  O   UNL     1      66.440  23.249  12.016  1.00  0.00    -0.465 OA
BRANCH   9  10
ATOM     10  C   UNL     1      66.935  24.595  11.630  1.00  0.00     0.232 C 
BRANCH  10  11
ATOM     11  C   UNL     1      66.723  25.678  12.629  1.00  0.00     0.038 C 
ATOM     12  C   UNL     1      67.427  25.991  13.556  1.00  0.00     0.007 C 
ENDBRANCH  10  11
ENDBRANCH   9  10
ENDBRANCH   7   9
ENDBRANCH   4   7
BRANCH   6  13
ATOM     13  C   UNL     1      63.159  22.871   7.736  1.00  0.00     0.120 C 
BRANCH  13  14
ATOM     14  C   UNL     1      62.220  21.850   8.402  1.00  0.00     0.234 C 
ATOM     15  O   UNL     1      61.676  22.111   9.479  1.00  0.00    -0.303 OA
ENDBRANCH  13  14
BRANCH  13  16
ATOM     16  C   UNL     1      62.977  22.796   6.296  1.00  0.00     0.186 C 
ATOM     17  C   UNL     1      62.646  21.398   5.868  1.00  0.00     0.054 C 
BRANCH  16  18
ATOM     18  O   UNL     1      62.019  23.815   5.847  1.00  0.00    -0.462 OA
BRANCH  18  19
ATOM     19  C   UNL     1      61.550  23.797   4.548  1.00  0.00     0.302 C 
ATOM     20  O   UNL     1      60.408  23.549   4.235  1.00  0.00    -0.253 OA
ATOM     21  C   UNL     1      62.563  24.167   3.533  1.00  0.00     0.139 C 
ENDBRANCH  18  19
ENDBRANCH  16  18
ENDBRANCH  13  16
ENDBRANCH   6  13
TORSDOF 9
ENDMDL
MODEL 9
REMARK VINA RESULT:    -5.770      1.503      6.112
REMARK INTER + INTRA:          -9.632
REMARK INTER:                  -8.978
REMARK INTRA:                  -0.653
REMARK UNBOUND:                -0.826
REMARK SMILES CCCOC(=O)C1CS[C@@H]([C@H](C=O)[C@@H](C)OC(C)=O)N1
REMARK SMILES IDX 9 2 8 3 7 4 20 5 10 6 5 7 6 8 4 9 3 10 2 11 1 12 11 13 12 14
REMARK SMILES IDX 13 15 14 16 15 17 16 18 17 19 19 20 18 21
REMARK H PARENT 20 1
REMARK Flexibility Score: inf
ROOT
ATOM      1  H   UNL     1      64.869  23.686   9.159  1.00  0.00     0.124 HD
ATOM      2  S   UNL     1      65.140  20.355   9.099  1.00  0.00    -0.140 SA
ATOM      3  C   UNL     1      64.763  21.171   7.556  1.00  0.00     0.102 C 
ATOM      4  C   UNL     1      64.359  22.442   7.710  1.00  0.00     0.175 C 
ATOM      5  N   UNL     1      64.283  22.869   9.059  1.00  0.00    -0.291 NA
ATOM      6  C   UNL     1      64.705  21.882  10.079  1.00  0.00     0.126 C 
ENDROOT
BRANCH   4   7
ATOM      7  C   UNL     1      64.017  23.348   6.597  1.00  0.00     0.324 C 
ATOM      8  O   UNL     1      62.931  23.763   6.295  1.00  0.00    -0.250 OA
BRANCH   7   9
ATOM      9  O   UNL     1      65.152  23.615   5.977  1.00  0.00    -0.465 OA
BRANCH   9  10
ATOM     10  C   UNL     1      65.661  25.010   6.012  1.00  0.00     0.232 C 
BRANCH  10  11
ATOM     11  C   UNL     1      65.623  25.749   4.721  1.00  0.00     0.038 C 
ATOM     12  C   UNL     1      65.039  25.461   3.707  1.00  0.00     0.007 C 
ENDBRANCH  10  11
ENDBRANCH   9  10
ENDBRANCH   7   9
ENDBRANCH   4   7
BRANCH   6  13
ATOM     13  C   UNL     1      65.847  22.678  10.718  1.00  0.00     0.120 C 
BRANCH  13  14
ATOM     14  C   UNL     1      66.762  21.715  11.496  1.00  0.00     0.234 C 
ATOM     15  O   UNL     1      67.900  21.467  11.088  1.00  0.00    -0.303 OA
ENDBRANCH  13  14
BRANCH  13  16
ATOM     16  C   UNL     1      65.274  23.629  11.655  1.00  0.00     0.186 C 
ATOM     17  C   UNL     1      64.114  23.028  12.390  1.00  0.00     0.054 C 
BRANCH  16  18
ATOM     18  O   UNL     1      66.320  24.189  12.521  1.00  0.00    -0.462 OA
BRANCH  18  19
ATOM     19  C   UNL     1      66.682  25.516  12.397  1.00  0.00     0.302 C 
ATOM     20  O   UNL     1      66.377  26.225  11.465  1.00  0.00    -0.253 OA
ATOM     21  C   UNL     1      67.450  26.045  13.547  1.00  0.00     0.139 C 
ENDBRANCH  18  19
ENDBRANCH  16  18
ENDBRANCH  13  16
ENDBRANCH   6  13
TORSDOF 9
ENDMDL
MODEL 10
REMARK VINA RESULT:    -5.626      4.123      6.033
REMARK INTER + INTRA:          -9.412
REMARK INTER:                  -8.513
REMARK INTRA:                  -0.899
REMARK UNBOUND:                -0.826
REMARK SMILES CCCOC(=O)C1CS[C@@H]([C@H](C=O)[C@@H](C)OC(C)=O)N1
REMARK SMILES IDX 9 2 8 3 7 4 20 5 10 6 5 7 6 8 4 9 3 10 2 11 1 12 11 13 12 14
REMARK SMILES IDX 13 15 14 16 15 17 16 18 17 19 19 20 18 21
REMARK H PARENT 20 1
REMARK Flexibility Score: inf
ROOT
ATOM      1  H   UNL     1      66.763  20.848  13.629  1.00  0.00     0.124 HD
ATOM      2  S   UNL     1      67.615  23.909  12.591  1.00  0.00    -0.140 SA
ATOM      3  C   UNL     1      68.804  23.026  13.588  1.00  0.00     0.102 C 
ATOM      4  C   UNL     1      68.282  21.965  14.225  1.00  0.00     0.175 C 
ATOM      5  N   UNL     1      66.895  21.778  14.003  1.00  0.00    -0.291 NA
ATOM      6  C   UNL     1      66.249  22.735  13.076  1.00  0.00     0.126 C 
ENDROOT
BRANCH   4   7
ATOM      7  C   UNL     1      69.052  21.048  15.086  1.00  0.00     0.324 C 
ATOM      8  O   UNL     1      69.338  21.193  16.244  1.00  0.00    -0.250 OA
BRANCH   7   9
ATOM      9  O   UNL     1      69.385  20.020  14.326  1.00  0.00    -0.465 OA
BRANCH   9  10
ATOM     10  C   UNL     1      70.542  19.186  14.738  1.00  0.00     0.232 C 
BRANCH  10  11
ATOM     11  C   UNL     1      70.221  17.986  15.559  1.00  0.00     0.038 C 
ATOM     12  C   UNL     1      70.700  17.647  16.611  1.00  0.00     0.007 C 
ENDBRANCH  10  11
ENDBRANCH   9  10
ENDBRANCH   7   9
ENDBRANCH   4   7
BRANCH   6  13
ATOM     13  C   UNL     1      65.747  21.741  12.024  1.00  0.00     0.120 C 
BRANCH  13  14
ATOM     14  C   UNL     1      66.765  21.663  10.873  1.00  0.00     0.234 C 
ATOM     15  O   UNL     1      67.679  20.835  10.901  1.00  0.00    -0.303 OA
ENDBRANCH  13  14
BRANCH  13  16
ATOM     16  C   UNL     1      64.486  22.233  11.494  1.00  0.00     0.186 C 
ATOM     17  C   UNL     1      63.893  23.272  12.396  1.00  0.00     0.054 C 
BRANCH  16  18
ATOM     18  O   UNL     1      64.649  22.657  10.098  1.00  0.00    -0.462 OA
BRANCH  18  19
ATOM     19  C   UNL     1      63.641  22.421   9.182  1.00  0.00     0.302 C 
ATOM     20  O   UNL     1      62.795  23.228   8.872  1.00  0.00    -0.253 OA
ATOM     21  C   UNL     1      63.702  21.085   8.546  1.00  0.00     0.139 C 
ENDBRANCH  18  19
ENDBRANCH  16  18
ENDBRANCH  13  16
ENDBRANCH   6  13
TORSDOF 9
ENDMDL
MODEL 11
REMARK VINA RESULT:    -5.589      2.375      6.357
REMARK INTER + INTRA:          -9.355
REMARK INTER:                  -8.465
REMARK INTRA:                  -0.890
REMARK UNBOUND:                -0.826
REMARK SMILES CCCOC(=O)C1CS[C@@H]([C@H](C=O)[C@@H](C)OC(C)=O)N1
REMARK SMILES IDX 9 2 8 3 7 4 20 5 10 6 5 7 6 8 4 9 3 10 2 11 1 12 11 13 12 14
REMARK SMILES IDX 13 15 14 16 15 17 16 18 17 19 19 20 18 21
REMARK H PARENT 20 1
REMARK Flexibility Score: inf
ROOT
ATOM      1  H   UNL     1      66.146  22.025  11.660  1.00  0.00     0.124 HD
ATOM      2  S   UNL     1      66.595  19.175   9.972  1.00  0.00    -0.140 SA
ATOM      3  C   UNL     1      65.454  20.362   9.281  1.00  0.00     0.102 C 
ATOM      4  C   UNL     1      65.085  21.316  10.150  1.00  0.00     0.175 C 
ATOM      5  N   UNL     1      65.648  21.173  11.443  1.00  0.00    -0.291 NA
ATOM      6  C   UNL     1      66.584  20.042  11.625  1.00  0.00     0.126 C 
ENDROOT
BRANCH   4   7
ATOM      7  C   UNL     1      64.178  22.433   9.826  1.00  0.00     0.324 C 
ATOM      8  O   UNL     1      63.528  23.096  10.587  1.00  0.00    -0.250 OA
BRANCH   7   9
ATOM      9  O   UNL     1      64.209  22.564   8.512  1.00  0.00    -0.465 OA
BRANCH   9  10
ATOM     10  C   UNL     1      62.927  22.790   7.797  1.00  0.00     0.232 C 
BRANCH  10  11
ATOM     11  C   UNL     1      63.004  23.629   6.570  1.00  0.00     0.038 C 
ATOM     12  C   UNL     1      62.381  23.517   5.545  1.00  0.00     0.007 C 
ENDBRANCH  10  11
ENDBRANCH   9  10
ENDBRANCH   7   9
ENDBRANCH   4   7
BRANCH   6  13
ATOM     13  C   UNL     1      67.831  20.831  12.032  1.00  0.00     0.120 C 
BRANCH  13  14
ATOM     14  C   UNL     1      68.661  19.994  13.022  1.00  0.00     0.234 C 
ATOM     15  O   UNL     1      68.916  18.810  12.779  1.00  0.00    -0.303 OA
ENDBRANCH  13  14
BRANCH  13  16
ATOM     16  C   UNL     1      67.404  22.049  12.702  1.00  0.00     0.186 C 
ATOM     17  C   UNL     1      67.683  21.979  14.173  1.00  0.00     0.054 C 
BRANCH  16  18
ATOM     18  O   UNL     1      67.967  23.227  12.030  1.00  0.00    -0.462 OA
BRANCH  18  19
ATOM     19  C   UNL     1      67.237  24.398  11.965  1.00  0.00     0.302 C 
ATOM     20  O   UNL     1      66.384  24.629  11.138  1.00  0.00    -0.253 OA
ATOM     21  C   UNL     1      67.543  25.363  13.045  1.00  0.00     0.139 C 
ENDBRANCH  18  19
ENDBRANCH  16  18
ENDBRANCH  13  16
ENDBRANCH   6  13
TORSDOF 9
ENDMDL
MODEL 12
REMARK VINA RESULT:    -5.521      4.688      8.076
REMARK INTER + INTRA:          -9.252
REMARK INTER:                  -8.184
REMARK INTRA:                  -1.067
REMARK UNBOUND:                -0.826
REMARK SMILES CCCOC(=O)C1CS[C@@H]([C@H](C=O)[C@@H](C)OC(C)=O)N1
REMARK SMILES IDX 9 2 8 3 7 4 20 5 10 6 5 7 6 8 4 9 3 10 2 11 1 12 11 13 12 14
REMARK SMILES IDX 13 15 14 16 15 17 16 18 17 19 19 20 18 21
REMARK H PARENT 20 1
REMARK Flexibility Score: inf
ROOT
ATOM      1  H   UNL     1      68.348  20.196  12.984  1.00  0.00     0.124 HD
ATOM      2  S   UNL     1      70.119  17.426  12.385  1.00  0.00    -0.140 SA
ATOM      3  C   UNL     1      69.161  18.090  11.033  1.00  0.00     0.102 C 
ATOM      4  C   UNL     1      68.244  18.991  11.421  1.00  0.00     0.175 C 
ATOM      5  N   UNL     1      68.201  19.210  12.821  1.00  0.00    -0.291 NA
ATOM      6  C   UNL     1      69.192  18.464  13.628  1.00  0.00     0.126 C 
ENDROOT
BRANCH   4   7
ATOM      7  C   UNL     1      67.345  19.713  10.502  1.00  0.00     0.324 C 
ATOM      8  O   UNL     1      67.338  19.679   9.301  1.00  0.00    -0.250 OA
BRANCH   7   9
ATOM      9  O   UNL     1      66.536  20.428  11.263  1.00  0.00    -0.465 OA
BRANCH   9  10
ATOM     10  C   UNL     1      65.421  21.161  10.611  1.00  0.00     0.232 C 
BRANCH  10  11
ATOM     11  C   UNL     1      65.059  22.471  11.218  1.00  0.00     0.038 C 
ATOM     12  C   UNL     1      64.105  22.743  11.901  1.00  0.00     0.007 C 
ENDBRANCH  10  11
ENDBRANCH   9  10
ENDBRANCH   7   9
ENDBRANCH   4   7
BRANCH   6  13
ATOM     13  C   UNL     1      69.921  19.652  14.262  1.00  0.00     0.120 C 
BRANCH  13  14
ATOM     14  C   UNL     1      70.745  19.158  15.464  1.00  0.00     0.234 C 
ATOM     15  O   UNL     1      70.999  17.957  15.598  1.00  0.00    -0.303 OA
ENDBRANCH  13  14
BRANCH  13  16
ATOM     16  C   UNL     1      68.927  20.598  14.740  1.00  0.00     0.186 C 
ATOM     17  C   UNL     1      68.938  20.678  16.236  1.00  0.00     0.054 C 
BRANCH  16  18
ATOM     18  O   UNL     1      69.080  21.890  14.058  1.00  0.00    -0.462 OA
BRANCH  18  19
ATOM     19  C   UNL     1      67.970  22.672  13.805  1.00  0.00     0.302 C 
ATOM     20  O   UNL     1      66.831  22.341  14.040  1.00  0.00    -0.253 OA
ATOM     21  C   UNL     1      68.285  24.011  13.255  1.00  0.00     0.139 C 
ENDBRANCH  18  19
ENDBRANCH  16  18
ENDBRANCH  13  16
ENDBRANCH   6  13
TORSDOF 9
ENDMDL
MODEL 13
REMARK VINA RESULT:    -5.501      4.283      7.342
REMARK INTER + INTRA:          -9.221
REMARK INTER:                  -8.184
REMARK INTRA:                  -1.037
REMARK UNBOUND:                -0.826
REMARK SMILES CCCOC(=O)C1CS[C@@H]([C@H](C=O)[C@@H](C)OC(C)=O)N1
REMARK SMILES IDX 9 2 8 3 7 4 20 5 10 6 5 7 6 8 4 9 3 10 2 11 1 12 11 13 12 14
REMARK SMILES IDX 13 15 14 16 15 17 16 18 17 19 19 20 18 21
REMARK H PARENT 20 1
REMARK Flexibility Score: inf
ROOT
ATOM      1  H   UNL     1      67.492  20.475  12.966  1.00  0.00     0.124 HD
ATOM      2  S   UNL     1      66.375  19.667   9.921  1.00  0.00    -0.140 SA
ATOM      3  C   UNL     1      65.826  21.222  10.605  1.00  0.00     0.102 C 
ATOM      4  C   UNL     1      66.045  21.331  11.925  1.00  0.00     0.175 C 
ATOM      5  N   UNL     1      66.637  20.185  12.513  1.00  0.00    -0.291 NA
ATOM      6  C   UNL     1      66.968  19.076  11.589  1.00  0.00     0.126 C 
ENDROOT
BRANCH   4   7
ATOM      7  C   UNL     1      65.717  22.523  12.729  1.00  0.00     0.324 C 
ATOM      8  O   UNL     1      64.783  23.266  12.594  1.00  0.00    -0.250 OA
BRANCH   7   9
ATOM      9  O   UNL     1      66.668  22.628  13.640  1.00  0.00    -0.465 OA
BRANCH   9  10
ATOM     10  C   UNL     1      67.923  23.330  13.268  1.00  0.00     0.232 C 
BRANCH  10  11
ATOM     11  C   UNL     1      67.775  24.749  12.845  1.00  0.00     0.038 C 
ATOM     12  C   UNL     1      67.428  25.696  13.504  1.00  0.00     0.007 C 
ENDBRANCH  10  11
ENDBRANCH   9  10
ENDBRANCH   7   9
ENDBRANCH   4   7
BRANCH   6  13
ATOM     13  C   UNL     1      68.478  19.008  11.834  1.00  0.00     0.120 C 
BRANCH  13  14
ATOM     14  C   UNL     1      69.064  17.816  11.057  1.00  0.00     0.234 C 
ATOM     15  O   UNL     1      69.665  17.997   9.994  1.00  0.00    -0.303 OA
ENDBRANCH  13  14
BRANCH  13  16
ATOM     16  C   UNL     1      68.702  18.790  13.253  1.00  0.00     0.186 C 
ATOM     17  C   UNL     1      69.114  17.374  13.520  1.00  0.00     0.054 C 
BRANCH  16  18
ATOM     18  O   UNL     1      69.620  19.803  13.788  1.00  0.00    -0.462 OA
BRANCH  18  19
ATOM     19  C   UNL     1      69.613  20.097  15.138  1.00  0.00     0.302 C 
ATOM     20  O   UNL     1      68.755  20.745  15.694  1.00  0.00    -0.253 OA
ATOM     21  C   UNL     1      70.737  19.499  15.894  1.00  0.00     0.139 C 
ENDBRANCH  18  19
ENDBRANCH  16  18
ENDBRANCH  13  16
ENDBRANCH   6  13
TORSDOF 9
ENDMDL
MODEL 14
REMARK VINA RESULT:    -5.424      2.290      6.476
REMARK INTER + INTRA:          -9.103
REMARK INTER:                  -8.191
REMARK INTRA:                  -0.911
REMARK UNBOUND:                -0.826
REMARK SMILES CCCOC(=O)C1CS[C@@H]([C@H](C=O)[C@@H](C)OC(C)=O)N1
REMARK SMILES IDX 9 2 8 3 7 4 20 5 10 6 5 7 6 8 4 9 3 10 2 11 1 12 11 13 12 14
REMARK SMILES IDX 13 15 14 16 15 17 16 18 17 19 19 20 18 21
REMARK H PARENT 20 1
REMARK Flexibility Score: inf
ROOT
ATOM      1  H   UNL     1      65.288  23.969   7.577  1.00  0.00     0.124 HD
ATOM      2  S   UNL     1      64.743  21.295   5.648  1.00  0.00    -0.140 SA
ATOM      3  C   UNL     1      65.778  22.586   4.978  1.00  0.00     0.102 C 
ATOM      4  C   UNL     1      65.693  23.742   5.655  1.00  0.00     0.175 C 
ATOM      5  N   UNL     1      64.781  23.715   6.740  1.00  0.00    -0.291 NA
ATOM      6  C   UNL     1      64.109  22.421   6.993  1.00  0.00     0.126 C 
ENDROOT
BRANCH   4   7
ATOM      7  C   UNL     1      66.466  24.956   5.332  1.00  0.00     0.324 C 
ATOM      8  O   UNL     1      66.075  26.092   5.306  1.00  0.00    -0.250 OA
BRANCH   7   9
ATOM      9  O   UNL     1      67.694  24.551   5.061  1.00  0.00    -0.465 OA
BRANCH   9  10
ATOM     10  C   UNL     1      68.398  25.164   3.906  1.00  0.00     0.232 C 
BRANCH  10  11
ATOM     11  C   UNL     1      67.941  24.728   2.558  1.00  0.00     0.038 C 
ATOM     12  C   UNL     1      68.337  23.803   1.895  1.00  0.00     0.007 C 
ENDBRANCH  10  11
ENDBRANCH   9  10
ENDBRANCH   7   9
ENDBRANCH   4   7
BRANCH   6  13
ATOM     13  C   UNL     1      64.596  22.178   8.425  1.00  0.00     0.120 C 
BRANCH  13  14
ATOM     14  C   UNL     1      65.046  20.713   8.566  1.00  0.00     0.234 C 
ATOM     15  O   UNL     1      66.203  20.444   8.902  1.00  0.00    -0.303 OA
ENDBRANCH  13  14
BRANCH  13  16
ATOM     16  C   UNL     1      63.484  22.410   9.332  1.00  0.00     0.186 C 
ATOM     17  C   UNL     1      62.192  21.950   8.727  1.00  0.00     0.054 C 
BRANCH  16  18
ATOM     18  O   UNL     1      63.776  21.840  10.654  1.00  0.00    -0.462 OA
BRANCH  18  19
ATOM     19  C   UNL     1      64.381  22.617  11.623  1.00  0.00     0.302 C 
ATOM     20  O   UNL     1      63.977  23.699  11.983  1.00  0.00    -0.253 OA
ATOM     21  C   UNL     1      65.567  21.990  12.249  1.00  0.00     0.139 C 
ENDBRANCH  18  19
ENDBRANCH  16  18
ENDBRANCH  13  16
ENDBRANCH   6  13
TORSDOF 9
ENDMDL
MODEL 15
REMARK VINA RESULT:    -5.421      3.925      6.961
REMARK INTER + INTRA:          -9.099
REMARK INTER:                  -7.930
REMARK INTRA:                  -1.169
REMARK UNBOUND:                -0.826
REMARK SMILES CCCOC(=O)C1CS[C@@H]([C@H](C=O)[C@@H](C)OC(C)=O)N1
REMARK SMILES IDX 9 2 8 3 7 4 20 5 10 6 5 7 6 8 4 9 3 10 2 11 1 12 11 13 12 14
REMARK SMILES IDX 13 15 14 16 15 17 16 18 17 19 19 20 18 21
REMARK H PARENT 20 1
REMARK Flexibility Score: inf
ROOT
ATOM      1  H   UNL     1      67.022  21.155  12.120  1.00  0.00     0.124 HD
ATOM      2  S   UNL     1      65.682  19.693   9.430  1.00  0.00    -0.140 SA
ATOM      3  C   UNL     1      64.995  21.262   9.933  1.00  0.00     0.102 C 
ATOM      4  C   UNL     1      65.351  21.626  11.175  1.00  0.00     0.175 C 
ATOM      5  N   UNL     1      66.172  20.684  11.845  1.00  0.00    -0.291 NA
ATOM      6  C   UNL     1      66.550  19.482  11.068  1.00  0.00     0.126 C 
ENDROOT
BRANCH   4   7
ATOM      7  C   UNL     1      64.948  22.890  11.820  1.00  0.00     0.324 C 
ATOM      8  O   UNL     1      64.011  23.077  12.549  1.00  0.00    -0.250 OA
BRANCH   7   9
ATOM      9  O   UNL     1      65.824  23.799  11.432  1.00  0.00    -0.465 OA
BRANCH   9  10
ATOM     10  C   UNL     1      66.705  24.411  12.458  1.00  0.00     0.232 C 
BRANCH  10  11
ATOM     11  C   UNL     1      68.075  23.840  12.565  1.00  0.00     0.038 C 
ATOM     12  C   UNL     1      68.681  23.526  13.557  1.00  0.00     0.007 C 
ENDBRANCH  10  11
ENDBRANCH   9  10
ENDBRANCH   7   9
ENDBRANCH   4   7
BRANCH   6  13
ATOM     13  C   UNL     1      68.072  19.648  11.104  1.00  0.00     0.120 C 
BRANCH  13  14
ATOM     14  C   UNL     1      68.668  19.146   9.777  1.00  0.00     0.234 C 
ATOM     15  O   UNL     1      69.353  18.120   9.748  1.00  0.00    -0.303 OA
ENDBRANCH  13  14
BRANCH  13  16
ATOM     16  C   UNL     1      68.597  18.831  12.185  1.00  0.00     0.186 C 
ATOM     17  C   UNL     1      69.056  19.684  13.329  1.00  0.00     0.054 C 
BRANCH  16  18
ATOM     18  O   UNL     1      67.631  17.786  12.552  1.00  0.00    -0.462 OA
BRANCH  18  19
ATOM     19  C   UNL     1      68.069  16.623  13.154  1.00  0.00     0.302 C 
ATOM     20  O   UNL     1      67.956  16.378  14.334  1.00  0.00    -0.253 OA
ATOM     21  C   UNL     1      68.659  15.640  12.217  1.00  0.00     0.139 C 
ENDBRANCH  18  19
ENDBRANCH  16  18
ENDBRANCH  13  16
ENDBRANCH   6  13
TORSDOF 9
ENDMDL
MODEL 16
REMARK VINA RESULT:    -5.366      4.241      6.433
REMARK INTER + INTRA:          -9.016
REMARK INTER:                  -8.127
REMARK INTRA:                  -0.889
REMARK UNBOUND:                -0.826
REMARK SMILES CCCOC(=O)C1CS[C@@H]([C@H](C=O)[C@@H](C)OC(C)=O)N1
REMARK SMILES IDX 9 2 8 3 7 4 20 5 10 6 5 7 6 8 4 9 3 10 2 11 1 12 11 13 12 14
REMARK SMILES IDX 13 15 14 16 15 17 16 18 17 19 19 20 18 21
REMARK H PARENT 20 1
REMARK Flexibility Score: inf
ROOT
ATOM      1  H   UNL     1      66.994  19.594  12.970  1.00  0.00     0.124 HD
ATOM      2  S   UNL     1      68.322  19.117   9.941  1.00  0.00    -0.140 SA
ATOM      3  C   UNL     1      68.732  17.928  11.207  1.00  0.00     0.102 C 
ATOM      4  C   UNL     1      68.436  18.347  12.448  1.00  0.00     0.175 C 
ATOM      5  N   UNL     1      67.889  19.653  12.505  1.00  0.00    -0.291 NA
ATOM      6  C   UNL     1      67.681  20.330  11.205  1.00  0.00     0.126 C 
ENDROOT
BRANCH   4   7
ATOM      7  C   UNL     1      68.644  17.547  13.669  1.00  0.00     0.324 C 
ATOM      8  O   UNL     1      67.930  16.690  14.117  1.00  0.00    -0.250 OA
BRANCH   7   9
ATOM      9  O   UNL     1      69.781  17.964  14.195  1.00  0.00    -0.465 OA
BRANCH   9  10
ATOM     10  C   UNL     1      69.746  18.591  15.540  1.00  0.00     0.232 C 
BRANCH  10  11
ATOM     11  C   UNL     1      69.522  20.062  15.568  1.00  0.00     0.038 C 
ATOM     12  C   UNL     1      68.775  20.694  16.271  1.00  0.00     0.007 C 
ENDBRANCH  10  11
ENDBRANCH   9  10
ENDBRANCH   7   9
ENDBRANCH   4   7
BRANCH   6  13
ATOM     13  C   UNL     1      66.167  20.546  11.293  1.00  0.00     0.120 C 
BRANCH  13  14
ATOM     14  C   UNL     1      65.540  20.307   9.908  1.00  0.00     0.234 C 
ATOM     15  O   UNL     1      65.762  21.087   8.978  1.00  0.00    -0.303 OA
ENDBRANCH  13  14
BRANCH  13  16
ATOM     16  C   UNL     1      65.923  21.926  11.679  1.00  0.00     0.186 C 
ATOM     17  C   UNL     1      64.469  22.267  11.564  1.00  0.00     0.054 C 
BRANCH  16  18
ATOM     18  O   UNL     1      66.512  22.201  12.996  1.00  0.00    -0.462 OA
BRANCH  18  19
ATOM     19  C   UNL     1      67.132  23.412  13.236  1.00  0.00     0.302 C 
ATOM     20  O   UNL     1      66.575  24.485  13.198  1.00  0.00    -0.253 OA
ATOM     21  C   UNL     1      68.560  23.299  13.609  1.00  0.00     0.139 C 
ENDBRANCH  18  19
ENDBRANCH  16  18
ENDBRANCH  13  16
ENDBRANCH   6  13
TORSDOF 9
ENDMDL
MODEL 17
REMARK VINA RESULT:    -5.331      2.751      4.638
REMARK INTER + INTRA:          -8.961
REMARK INTER:                  -8.225
REMARK INTRA:                  -0.737
REMARK UNBOUND:                -0.826
REMARK SMILES CCCOC(=O)C1CS[C@@H]([C@H](C=O)[C@@H](C)OC(C)=O)N1
REMARK SMILES IDX 9 2 8 3 7 4 20 5 10 6 5 7 6 8 4 9 3 10 2 11 1 12 11 13 12 14
REMARK SMILES IDX 13 15 14 16 15 17 16 18 17 19 19 20 18 21
REMARK H PARENT 20 1
REMARK Flexibility Score: inf
ROOT
ATOM      1  H   UNL     1      65.270  23.399   7.012  1.00  0.00     0.124 HD
ATOM      2  S   UNL     1      63.396  23.860   4.283  1.00  0.00    -0.140 SA
ATOM      3  C   UNL     1      62.539  23.627   5.831  1.00  0.00     0.102 C 
ATOM      4  C   UNL     1      63.322  23.137   6.805  1.00  0.00     0.175 C 
ATOM      5  N   UNL     1      64.656  22.876   6.404  1.00  0.00    -0.291 NA
ATOM      6  C   UNL     1      64.995  23.226   5.006  1.00  0.00     0.126 C 
ENDROOT
BRANCH   4   7
ATOM      7  C   UNL     1      62.872  22.882   8.187  1.00  0.00     0.324 C 
ATOM      8  O   UNL     1      61.744  22.871   8.603  1.00  0.00    -0.250 OA
BRANCH   7   9
ATOM      9  O   UNL     1      63.965  22.672   8.898  1.00  0.00    -0.465 OA
BRANCH   9  10
ATOM     10  C   UNL     1      63.849  21.876  10.147  1.00  0.00     0.232 C 
BRANCH  10  11
ATOM     11  C   UNL     1      64.128  22.607  11.413  1.00  0.00     0.038 C 
ATOM     12  C   UNL     1      65.040  22.450  12.185  1.00  0.00     0.007 C 
ENDBRANCH  10  11
ENDBRANCH   9  10
ENDBRANCH   7   9
ENDBRANCH   4   7
BRANCH   6  13
ATOM     13  C   UNL     1      66.112  24.237   5.282  1.00  0.00     0.120 C 
BRANCH  13  14
ATOM     14  C   UNL     1      65.755  25.579   4.619  1.00  0.00     0.234 C 
ATOM     15  O   UNL     1      65.668  26.607   5.297  1.00  0.00    -0.303 OA
ENDBRANCH  13  14
BRANCH  13  16
ATOM     16  C   UNL     1      67.339  23.738   4.683  1.00  0.00     0.186 C 
ATOM     17  C   UNL     1      67.076  23.145   3.332  1.00  0.00     0.054 C 
BRANCH  16  18
ATOM     18  O   UNL     1      68.377  24.777   4.702  1.00  0.00    -0.462 OA
BRANCH  18  19
ATOM     19  C   UNL     1      69.639  24.501   4.211  1.00  0.00     0.302 C 
ATOM     20  O   UNL     1      70.398  23.690   4.690  1.00  0.00    -0.253 OA
ATOM     21  C   UNL     1      69.989  25.254   2.985  1.00  0.00     0.139 C 
ENDBRANCH  18  19
ENDBRANCH  16  18
ENDBRANCH  13  16
ENDBRANCH   6  13
TORSDOF 9
ENDMDL
MODEL 18
REMARK VINA RESULT:    -5.315      4.055      6.061
REMARK INTER + INTRA:          -8.938
REMARK INTER:                  -7.778
REMARK INTRA:                  -1.160
REMARK UNBOUND:                -0.826
REMARK SMILES CCCOC(=O)C1CS[C@@H]([C@H](C=O)[C@@H](C)OC(C)=O)N1
REMARK SMILES IDX 9 2 8 3 7 4 20 5 10 6 5 7 6 8 4 9 3 10 2 11 1 12 11 13 12 14
REMARK SMILES IDX 13 15 14 16 15 17 16 18 17 19 19 20 18 21
REMARK H PARENT 20 1
REMARK Flexibility Score: inf
ROOT
ATOM      1  H   UNL     1      67.057  20.864  12.071  1.00  0.00     0.124 HD
ATOM      2  S   UNL     1      66.239  24.044  12.692  1.00  0.00    -0.140 SA
ATOM      3  C   UNL     1      67.556  23.336  13.665  1.00  0.00     0.102 C 
ATOM      4  C   UNL     1      67.613  21.997  13.592  1.00  0.00     0.175 C 
ATOM      5  N   UNL     1      66.603  21.415  12.785  1.00  0.00    -0.291 NA
ATOM      6  C   UNL     1      65.683  22.360  12.113  1.00  0.00     0.126 C 
ENDROOT
BRANCH   4   7
ATOM      7  C   UNL     1      68.624  21.167  14.273  1.00  0.00     0.324 C 
ATOM      8  O   UNL     1      69.143  21.367  15.338  1.00  0.00    -0.250 OA
BRANCH   7   9
ATOM      9  O   UNL     1      68.865  20.145  13.471  1.00  0.00    -0.465 OA
BRANCH   9  10
ATOM     10  C   UNL     1      69.867  19.136  13.899  1.00  0.00     0.232 C 
BRANCH  10  11
ATOM     11  C   UNL     1      69.325  17.926  14.574  1.00  0.00     0.038 C 
ATOM     12  C   UNL     1      69.561  17.516  15.683  1.00  0.00     0.007 C 
ENDBRANCH  10  11
ENDBRANCH   9  10
ENDBRANCH   7   9
ENDBRANCH   4   7
BRANCH   6  13
ATOM     13  C   UNL     1      65.964  21.968  10.659  1.00  0.00     0.120 C 
BRANCH  13  14
ATOM     14  C   UNL     1      64.727  22.285   9.801  1.00  0.00     0.234 C 
ATOM     15  O   UNL     1      63.780  22.917  10.277  1.00  0.00    -0.303 OA
ENDBRANCH  13  14
BRANCH  13  16
ATOM     16  C   UNL     1      66.207  20.536  10.610  1.00  0.00     0.186 C 
ATOM     17  C   UNL     1      65.330  19.877   9.589  1.00  0.00     0.054 C 
BRANCH  16  18
ATOM     18  O   UNL     1      67.642  20.266  10.447  1.00  0.00    -0.462 OA
BRANCH  18  19
ATOM     19  C   UNL     1      68.090  18.964  10.328  1.00  0.00     0.302 C 
ATOM     20  O   UNL     1      67.855  18.084  11.124  1.00  0.00    -0.253 OA
ATOM     21  C   UNL     1      68.858  18.699   9.090  1.00  0.00     0.139 C 
ENDBRANCH  18  19
ENDBRANCH  16  18
ENDBRANCH  13  16
ENDBRANCH   6  13
TORSDOF 9
ENDMDL
MODEL 19
REMARK VINA RESULT:    -5.292      5.546      7.544
REMARK INTER + INTRA:          -8.902
REMARK INTER:                  -7.760
REMARK INTRA:                  -1.143
REMARK UNBOUND:                -0.826
REMARK SMILES CCCOC(=O)C1CS[C@@H]([C@H](C=O)[C@@H](C)OC(C)=O)N1
REMARK SMILES IDX 9 2 8 3 7 4 20 5 10 6 5 7 6 8 4 9 3 10 2 11 1 12 11 13 12 14
REMARK SMILES IDX 13 15 14 16 15 17 16 18 17 19 19 20 18 21
REMARK H PARENT 20 1
REMARK Flexibility Score: inf
ROOT
ATOM      1  H   UNL     1      67.738  19.455  12.918  1.00  0.00     0.124 HD
ATOM      2  S   UNL     1      70.016  19.554  15.362  1.00  0.00    -0.140 SA
ATOM      3  C   UNL     1      69.064  21.036  15.074  1.00  0.00     0.102 C 
ATOM      4  C   UNL     1      68.414  21.032  13.900  1.00  0.00     0.175 C 
ATOM      5  N   UNL     1      68.636  19.873  13.115  1.00  0.00    -0.291 NA
ATOM      6  C   UNL     1      69.498  18.832  13.721  1.00  0.00     0.126 C 
ENDROOT
BRANCH   4   7
ATOM      7  C   UNL     1      67.532  22.118  13.431  1.00  0.00     0.324 C 
ATOM      8  O   UNL     1      66.440  22.407  13.840  1.00  0.00    -0.250 OA
BRANCH   7   9
ATOM      9  O   UNL     1      68.179  22.721  12.450  1.00  0.00    -0.465 OA
BRANCH   9  10
ATOM     10  C   UNL     1      67.633  24.000  11.929  1.00  0.00     0.232 C 
BRANCH  10  11
ATOM     11  C   UNL     1      67.941  25.215  12.730  1.00  0.00     0.038 C 
ATOM     12  C   UNL     1      67.181  25.928  13.334  1.00  0.00     0.007 C 
ENDBRANCH  10  11
ENDBRANCH   9  10
ENDBRANCH   7   9
ENDBRANCH   4   7
BRANCH   6  13
ATOM     13  C   UNL     1      68.497  17.673  13.728  1.00  0.00     0.120 C 
BRANCH  13  14
ATOM     14  C   UNL     1      69.103  16.485  14.495  1.00  0.00     0.234 C 
ATOM     15  O   UNL     1      68.670  16.173  15.609  1.00  0.00    -0.303 OA
ENDBRANCH  13  14
BRANCH  13  16
ATOM     16  C   UNL     1      68.261  17.263  12.353  1.00  0.00     0.186 C 
ATOM     17  C   UNL     1      68.736  15.861  12.122  1.00  0.00     0.054 C 
BRANCH  16  18
ATOM     18  O   UNL     1      66.861  17.503  11.981  1.00  0.00    -0.462 OA
BRANCH  18  19
ATOM     19  C   UNL     1      66.563  18.304  10.896  1.00  0.00     0.302 C 
ATOM     20  O   UNL     1      66.716  19.504  10.868  1.00  0.00    -0.253 OA
ATOM     21  C   UNL     1      66.077  17.563   9.710  1.00  0.00     0.139 C 
ENDBRANCH  18  19
ENDBRANCH  16  18
ENDBRANCH  13  16
ENDBRANCH   6  13
TORSDOF 9
ENDMDL
MODEL 20
REMARK VINA RESULT:    -5.236      1.776      6.433
REMARK INTER + INTRA:          -8.816
REMARK INTER:                  -7.990
REMARK INTRA:                  -0.826
REMARK UNBOUND:                -0.826
REMARK SMILES CCCOC(=O)C1CS[C@@H]([C@H](C=O)[C@@H](C)OC(C)=O)N1
REMARK SMILES IDX 9 2 8 3 7 4 20 5 10 6 5 7 6 8 4 9 3 10 2 11 1 12 11 13 12 14
REMARK SMILES IDX 13 15 14 16 15 17 16 18 17 19 19 20 18 21
REMARK H PARENT 20 1
REMARK Flexibility Score: inf
ROOT
ATOM      1  H   UNL     1      65.763  23.110   8.403  1.00  0.00     0.124 HD
ATOM      2  S   UNL     1      62.740  21.689   8.291  1.00  0.00    -0.140 SA
ATOM      3  C   UNL     1      63.264  22.605   6.852  1.00  0.00     0.102 C 
ATOM      4  C   UNL     1      64.322  23.400   7.082  1.00  0.00     0.175 C 
ATOM      5  N   UNL     1      64.788  23.374   8.420  1.00  0.00    -0.291 NA
ATOM      6  C   UNL     1      64.084  22.451   9.338  1.00  0.00     0.126 C 
ENDROOT
BRANCH   4   7
ATOM      7  C   UNL     1      64.972  24.238   6.057  1.00  0.00     0.324 C 
ATOM      8  O   UNL     1      65.740  25.146   6.229  1.00  0.00    -0.250 OA
BRANCH   7   9
ATOM      9  O   UNL     1      64.535  23.801   4.890  1.00  0.00    -0.465 OA
BRANCH   9  10
ATOM     10  C   UNL     1      64.084  24.800   3.888  1.00  0.00     0.232 C 
BRANCH  10  11
ATOM     11  C   UNL     1      64.935  24.935   2.674  1.00  0.00     0.038 C 
ATOM     12  C   UNL     1      65.544  25.900   2.288  1.00  0.00     0.007 C 
ENDBRANCH  10  11
ENDBRANCH   9  10
ENDBRANCH   7   9
ENDBRANCH   4   7
BRANCH   6  13
ATOM     13  C   UNL     1      65.270  21.571   9.741  1.00  0.00     0.120 C 
BRANCH  13  14
ATOM     14  C   UNL     1      65.044  20.143   9.212  1.00  0.00     0.234 C 
ATOM     15  O   UNL     1      65.815  19.655   8.381  1.00  0.00    -0.303 OA
ENDBRANCH  13  14
BRANCH  13  16
ATOM     16  C   UNL     1      65.331  21.522  11.193  1.00  0.00     0.186 C 
ATOM     17  C   UNL     1      66.588  20.849  11.655  1.00  0.00     0.054 C 
BRANCH  16  18
ATOM     18  O   UNL     1      65.109  22.858  11.760  1.00  0.00    -0.462 OA
BRANCH  18  19
ATOM     19  C   UNL     1      66.154  23.759  11.831  1.00  0.00     0.302 C 
ATOM     20  O   UNL     1      66.480  24.502  10.934  1.00  0.00    -0.253 OA
ATOM     21  C   UNL     1      66.838  23.791  13.144  1.00  0.00     0.139 C 
ENDBRANCH  18  19
ENDBRANCH  16  18
ENDBRANCH  13  16
ENDBRANCH   6  13
TORSDOF 9
ENDMDL
