MODEL 1
REMARK VINA RESULT:    -6.077      0.000      0.000
REMARK INTER + INTRA:          -6.859
REMARK INTER:                  -6.879
REMARK INTRA:                   0.020
REMARK UNBOUND:                -0.071
REMARK SMILES O=C1C[C@H]2O/C(=C\CO)[C@H]([C]([O-])O)N12
REMARK SMILES IDX 5 1 1 2 14 3 4 4 10 5 3 6 2 7 6 8 7 9 11 10 13 11 12 12 8 13
REMARK SMILES IDX 9 14
REMARK H PARENT
REMARK INDEX MAP 1 1 2 2 6 3 7 4 8 5 9 6 10 7 11 8 13 9 12 10 3 11 4 12 14 13
REMARK INDEX MAP 5 14
REMARK Flexibility Score: inf
ROOT
ATOM      1  O   UNL     1       1.244   5.174  -1.680  1.00  0.00    -0.472 OA
ATOM      2  O   UNL     1       5.147   3.938  -0.886  1.00  0.00    -0.275 OA
ATOM      3  N   UNL     1       2.954   4.474  -0.197  1.00  0.00    -0.295 N 
ATOM      4  C   UNL     1       2.323   5.634  -0.831  1.00  0.00     0.183 C 
ATOM      5  C   UNL     1       2.116   3.312  -0.337  1.00  0.00     0.108 C 
ATOM      6  C   UNL     1       3.691   5.955  -1.456  1.00  0.00     0.083 C 
ATOM      7  C   UNL     1       4.163   4.639  -0.812  1.00  0.00     0.231 C 
ATOM      8  C   UNL     1       1.108   3.813  -1.345  1.00  0.00     0.121 C 
ATOM      9  C   UNL     1       0.181   3.054  -1.940  1.00  0.00    -0.019 C 
ENDROOT
BRANCH   5  10
ATOM     10  C   UNL     1       1.455   3.068   0.979  1.00  0.00     0.035 C 
ATOM     11  O   UNL     1       2.293   3.371   2.000  1.00  0.00    -0.403 OA
ATOM     12  O   UNL     1       0.314   2.655   1.125  1.00  0.00    -0.826 OA
ENDBRANCH   5  10
BRANCH   9  13
ATOM     13  C   UNL     1      -0.807   3.569  -2.934  1.00  0.00     0.065 C 
ATOM     14  O   UNL     1      -2.092   3.061  -2.607  1.00  0.00    -0.392 OA
ENDBRANCH   9  13
TORSDOF 2
ENDMDL
MODEL 2
REMARK VINA RESULT:    -5.738      2.308      4.472
REMARK INTER + INTRA:          -6.480
REMARK INTER:                  -6.325
REMARK INTRA:                  -0.156
REMARK UNBOUND:                -0.071
REMARK SMILES O=C1C[C@H]2O/C(=C\CO)[C@H]([C]([O-])O)N12
REMARK SMILES IDX 5 1 1 2 14 3 4 4 10 5 3 6 2 7 6 8 7 9 11 10 13 11 12 12 8 13
REMARK SMILES IDX 9 14
REMARK H PARENT
REMARK INDEX MAP 1 1 2 2 6 3 7 4 8 5 9 6 10 7 11 8 13 9 12 10 3 11 4 12 14 13
REMARK INDEX MAP 5 14
REMARK Flexibility Score: inf
ROOT
ATOM      1  O   UNL     1       1.519   5.368  -0.305  1.00  0.00    -0.472 OA
ATOM      2  O   UNL     1      -1.941   7.656  -0.737  1.00  0.00    -0.275 OA
ATOM      3  N   UNL     1      -0.325   6.151  -1.571  1.00  0.00    -0.295 N 
ATOM      4  C   UNL     1       1.071   6.407  -1.209  1.00  0.00     0.183 C 
ATOM      5  C   UNL     1      -0.696   4.809  -1.206  1.00  0.00     0.108 C 
ATOM      6  C   UNL     1       0.607   7.758  -0.637  1.00  0.00     0.083 C 
ATOM      7  C   UNL     1      -0.816   7.280  -0.978  1.00  0.00     0.231 C 
ATOM      8  C   UNL     1       0.484   4.414  -0.348  1.00  0.00     0.121 C 
ATOM      9  C   UNL     1       0.561   3.291   0.374  1.00  0.00    -0.019 C 
ENDROOT
BRANCH   5  10
ATOM     10  C   UNL     1      -0.724   3.991  -2.454  1.00  0.00     0.035 C 
ATOM     11  O   UNL     1      -1.869   3.269  -2.528  1.00  0.00    -0.403 OA
ATOM     12  O   UNL     1       0.158   3.969  -3.299  1.00  0.00    -0.826 OA
ENDBRANCH   5  10
BRANCH   9  13
ATOM     13  C   UNL     1       1.737   2.920   1.216  1.00  0.00     0.065 C 
ATOM     14  O   UNL     1       2.315   1.732   0.695  1.00  0.00    -0.392 OA
ENDBRANCH   9  13
TORSDOF 2
ENDMDL
MODEL 3
REMARK VINA RESULT:    -5.386      2.346      4.108
REMARK INTER + INTRA:          -6.087
REMARK INTER:                  -6.087
REMARK INTRA:                  -0.000
REMARK UNBOUND:                -0.071
REMARK SMILES O=C1C[C@H]2O/C(=C\CO)[C@H]([C]([O-])O)N12
REMARK SMILES IDX 5 1 1 2 14 3 4 4 10 5 3 6 2 7 6 8 7 9 11 10 13 11 12 12 8 13
REMARK SMILES IDX 9 14
REMARK H PARENT
REMARK INDEX MAP 1 1 2 2 6 3 7 4 8 5 9 6 10 7 11 8 13 9 12 10 3 11 4 12 14 13
REMARK INDEX MAP 5 14
REMARK Flexibility Score: inf
ROOT
ATOM      1  O   UNL     1       1.093   6.291  -1.305  1.00  0.00    -0.472 OA
ATOM      2  O   UNL     1       1.807   2.236  -0.642  1.00  0.00    -0.275 OA
ATOM      3  N   UNL     1       0.358   4.051  -1.063  1.00  0.00    -0.295 N 
ATOM      4  C   UNL     1       0.634   5.301  -0.351  1.00  0.00     0.183 C 
ATOM      5  C   UNL     1       0.297   4.287  -2.482  1.00  0.00     0.108 C 
ATOM      6  C   UNL     1       1.666   4.522   0.483  1.00  0.00     0.083 C 
ATOM      7  C   UNL     1       1.338   3.333  -0.438  1.00  0.00     0.231 C 
ATOM      8  C   UNL     1       0.847   5.693  -2.556  1.00  0.00     0.121 C 
ATOM      9  C   UNL     1       1.145   6.338  -3.689  1.00  0.00    -0.019 C 
ENDROOT
BRANCH   5  10
ATOM     10  C   UNL     1      -1.141   4.273  -2.882  1.00  0.00     0.035 C 
ATOM     11  O   UNL     1      -1.707   3.076  -2.592  1.00  0.00    -0.403 OA
ATOM     12  O   UNL     1      -1.735   5.208  -3.400  1.00  0.00    -0.826 OA
ENDBRANCH   5  10
BRANCH   9  13
ATOM     13  C   UNL     1       1.688   7.728  -3.740  1.00  0.00     0.065 C 
ATOM     14  O   UNL     1       1.504   8.243  -5.051  1.00  0.00    -0.392 OA
ENDBRANCH   9  13
TORSDOF 2
ENDMDL
MODEL 4
REMARK VINA RESULT:    -5.276      4.042      5.312
REMARK INTER + INTRA:          -5.964
REMARK INTER:                  -5.781
REMARK INTRA:                  -0.183
REMARK UNBOUND:                -0.071
REMARK SMILES O=C1C[C@H]2O/C(=C\CO)[C@H]([C]([O-])O)N12
REMARK SMILES IDX 5 1 1 2 14 3 4 4 10 5 3 6 2 7 6 8 7 9 11 10 13 11 12 12 8 13
REMARK SMILES IDX 9 14
REMARK H PARENT
REMARK INDEX MAP 1 1 2 2 6 3 7 4 8 5 9 6 10 7 11 8 13 9 12 10 3 11 4 12 14 13
REMARK INDEX MAP 5 14
REMARK Flexibility Score: inf
ROOT
ATOM      1  O   UNL     1       4.252   3.641   2.799  1.00  0.00    -0.472 OA
ATOM      2  O   UNL     1       6.947   6.553   1.515  1.00  0.00    -0.275 OA
ATOM      3  N   UNL     1       6.455   4.428   2.416  1.00  0.00    -0.295 N 
ATOM      4  C   UNL     1       5.364   4.356   3.392  1.00  0.00     0.183 C 
ATOM      5  C   UNL     1       6.223   3.500   1.341  1.00  0.00     0.108 C 
ATOM      6  C   UNL     1       5.354   5.895   3.397  1.00  0.00     0.083 C 
ATOM      7  C   UNL     1       6.419   5.788   2.289  1.00  0.00     0.231 C 
ATOM      8  C   UNL     1       4.789   3.107   1.612  1.00  0.00     0.121 C 
ATOM      9  C   UNL     1       4.034   2.365   0.795  1.00  0.00    -0.019 C 
ENDROOT
BRANCH   5  10
ATOM     10  C   UNL     1       7.128   2.330   1.549  1.00  0.00     0.035 C 
ATOM     11  O   UNL     1       8.093   2.297   0.598  1.00  0.00    -0.403 OA
ATOM     12  O   UNL     1       7.021   1.512   2.450  1.00  0.00    -0.826 OA
ENDBRANCH   5  10
BRANCH   9  13
ATOM     13  C   UNL     1       2.618   1.988   1.082  1.00  0.00     0.065 C 
ATOM     14  O   UNL     1       2.571   0.610   1.424  1.00  0.00    -0.392 OA
ENDBRANCH   9  13
TORSDOF 2
ENDMDL
MODEL 5
REMARK VINA RESULT:    -5.257      2.819      4.068
REMARK INTER + INTRA:          -5.943
REMARK INTER:                  -5.809
REMARK INTRA:                  -0.134
REMARK UNBOUND:                -0.071
REMARK SMILES O=C1C[C@H]2O/C(=C\CO)[C@H]([C]([O-])O)N12
REMARK SMILES IDX 5 1 1 2 14 3 4 4 10 5 3 6 2 7 6 8 7 9 11 10 13 11 12 12 8 13
REMARK SMILES IDX 9 14
REMARK H PARENT
REMARK INDEX MAP 1 1 2 2 6 3 7 4 8 5 9 6 10 7 11 8 13 9 12 10 3 11 4 12 14 13
REMARK INDEX MAP 5 14
REMARK Flexibility Score: inf
ROOT
ATOM      1  O   UNL     1       4.191   4.920   1.326  1.00  0.00    -0.472 OA
ATOM      2  O   UNL     1       6.682   1.695   2.214  1.00  0.00    -0.275 OA
ATOM      3  N   UNL     1       4.561   2.730   2.152  1.00  0.00    -0.295 N 
ATOM      4  C   UNL     1       4.504   4.149   2.512  1.00  0.00     0.183 C 
ATOM      5  C   UNL     1       3.970   2.520   0.857  1.00  0.00     0.108 C 
ATOM      6  C   UNL     1       5.968   4.026   2.969  1.00  0.00     0.083 C 
ATOM      7  C   UNL     1       5.891   2.585   2.431  1.00  0.00     0.231 C 
ATOM      8  C   UNL     1       3.838   3.945   0.373  1.00  0.00     0.121 C 
ATOM      9  C   UNL     1       3.475   4.302  -0.863  1.00  0.00    -0.019 C 
ENDROOT
BRANCH   5  10
ATOM     10  C   UNL     1       2.620   1.918   1.068  1.00  0.00     0.035 C 
ATOM     11  O   UNL     1       2.709   0.570   1.181  1.00  0.00    -0.403 OA
ATOM     12  O   UNL     1       1.573   2.546   1.132  1.00  0.00    -0.826 OA
ENDBRANCH   5  10
BRANCH   9  13
ATOM     13  C   UNL     1       3.350   5.717  -1.321  1.00  0.00     0.065 C 
ATOM     14  O   UNL     1       4.585   6.123  -1.893  1.00  0.00    -0.392 OA
ENDBRANCH   9  13
TORSDOF 2
ENDMDL
