REMARK SMILES O=C(O)c1ccc(CCCNS(=O)(=O)c2ccsc2C(=O)O)cc1
REMARK SMILES IDX 10 1 11 2 12 4 13 5 14 6 15 7 19 8 16 9 18 10 17 11 20 12
REMARK SMILES IDX 21 13 22 14 9 16 8 17 7 18 6 19 23 20 5 21 24 22 4 23 2 24
REMARK SMILES IDX 1 25 3 26
REMARK H PARENT 11 3 22 15 3 27
REMARK Flexibility Score: inf
ROOT
ATOM      1  C   UNL     1      21.293  10.045  13.074  1.00  0.00     0.011 C 
ENDROOT
BRANCH   1   2
ATOM      2  N   UNL     1      22.319   9.262  13.796  1.00  0.00    -0.211 NA
ATOM      3  H   UNL     1      23.281   9.538  13.562  1.00  0.00     0.141 HD
BRANCH   2   4
ATOM      4  S   UNL     1      22.056   7.615  14.123  1.00  0.00     0.242 S 
ATOM      5  O   UNL     1      22.664   6.813  13.079  1.00  0.00    -0.207 OA
ATOM      6  O   UNL     1      20.662   7.423  14.472  1.00  0.00    -0.207 OA
BRANCH   4   7
ATOM      7  C   UNL     1      22.996   7.385  15.602  1.00  0.00     0.107 A 
ATOM      8  C   UNL     1      22.836   8.124  16.754  1.00  0.00     0.132 A 
ATOM      9  C   UNL     1      24.016   6.399  15.737  1.00  0.00    -0.030 A 
ATOM     10  S   UNL     1      23.914   7.629  17.989  1.00  0.00    -0.136 S 
ATOM     11  C   UNL     1      24.598   6.422  16.985  1.00  0.00    -0.007 A 
BRANCH   8  12
ATOM     12  C   UNL     1      21.931   9.195  17.026  1.00  0.00     0.347 C 
ATOM     13  O   UNL     1      22.209  10.414  17.047  1.00  0.00    -0.245 OA
BRANCH  12  14
ATOM     14  O   UNL     1      20.650   8.777  17.281  1.00  0.00    -0.477 OA
ATOM     15  H   UNL     1      20.052   9.533  17.464  1.00  0.00     0.297 HD
ENDBRANCH  12  14
ENDBRANCH   8  12
ENDBRANCH   4   7
ENDBRANCH   2   4
ENDBRANCH   1   2
BRANCH   1  16
ATOM     16  C   UNL     1      21.411   9.819  11.571  1.00  0.00    -0.035 C 
BRANCH  16  17
ATOM     17  C   UNL     1      20.134   9.226  10.966  1.00  0.00    -0.027 C 
BRANCH  17  18
ATOM     18  C   UNL     1      20.385   7.867  10.362  1.00  0.00    -0.048 A 
ATOM     19  C   UNL     1      19.413   6.871  10.459  1.00  0.00    -0.058 A 
ATOM     20  C   UNL     1      21.587   7.606   9.704  1.00  0.00    -0.058 A 
ATOM     21  C   UNL     1      19.644   5.615   9.899  1.00  0.00    -0.047 A 
ATOM     22  C   UNL     1      21.818   6.350   9.144  1.00  0.00    -0.047 A 
ATOM     23  C   UNL     1      20.847   5.354   9.242  1.00  0.00     0.059 A 
BRANCH  23  24
ATOM     24  C   UNL     1      21.088   4.043   8.658  1.00  0.00     0.335 C 
ATOM     25  O   UNL     1      20.560   2.989   9.024  1.00  0.00    -0.246 OA
BRANCH  24  26
ATOM     26  O   UNL     1      21.982   4.088   7.633  1.00  0.00    -0.478 OA
ATOM     27  H   UNL     1      22.137   3.199   7.246  1.00  0.00     0.297 HD
ENDBRANCH  24  26
ENDBRANCH  23  24
ENDBRANCH  17  18
ENDBRANCH  16  17
ENDBRANCH   1  16
TORSDOF 10
