MODEL 1
REMARK VINA RESULT:    -7.876      0.000      0.000
REMARK INTER + INTRA:         -12.749
REMARK INTER:                 -12.126
REMARK INTRA:                  -0.623
REMARK UNBOUND:                -0.729
REMARK SMILES O=C(O)c1ccc(CCCNS(=O)(=O)c2ccsc2C(=O)O)cc1
REMARK SMILES IDX 10 1 11 2 12 4 13 5 14 6 15 7 19 8 16 9 18 10 17 11 20 12
REMARK SMILES IDX 21 13 22 14 9 16 8 17 7 18 6 19 23 20 5 21 24 22 4 23 2 24
REMARK SMILES IDX 1 25 3 26
REMARK H PARENT 11 3 22 15 3 27
REMARK Flexibility Score: inf
ROOT
ATOM      1  C   UNL     1      25.379   6.381  14.974  1.00  0.00     0.011 C 
ENDROOT
BRANCH   1   2
ATOM      2  N   UNL     1      24.554   6.579  16.186  1.00  0.00    -0.211 NA
ATOM      3  H   UNL     1      24.078   7.490  16.210  1.00  0.00     0.141 HD
BRANCH   2   4
ATOM      4  S   UNL     1      25.071   5.948  17.676  1.00  0.00     0.242 S 
ATOM      5  O   UNL     1      26.125   6.785  18.216  1.00  0.00    -0.207 OA
ATOM      6  O   UNL     1      25.274   4.519  17.537  1.00  0.00    -0.207 OA
BRANCH   4   7
ATOM      7  C   UNL     1      23.633   6.169  18.681  1.00  0.00     0.107 A 
ATOM      8  C   UNL     1      23.568   5.882  20.027  1.00  0.00     0.132 A 
ATOM      9  C   UNL     1      22.397   6.671  18.181  1.00  0.00    -0.030 A 
ATOM     10  S   UNL     1      22.021   6.218  20.681  1.00  0.00    -0.136 S 
ATOM     11  C   UNL     1      21.434   6.748  19.163  1.00  0.00    -0.007 A 
BRANCH   8  12
ATOM     12  C   UNL     1      24.579   5.367  20.895  1.00  0.00     0.347 C 
ATOM     13  O   UNL     1      25.502   6.021  21.428  1.00  0.00    -0.245 OA
BRANCH  12  14
ATOM     14  O   UNL     1      24.469   4.020  21.124  1.00  0.00    -0.477 OA
ATOM     15  H   UNL     1      25.299   3.644  21.487  1.00  0.00     0.297 HD
ENDBRANCH  12  14
ENDBRANCH   8  12
ENDBRANCH   4   7
ENDBRANCH   2   4
ENDBRANCH   1   2
BRANCH   1  16
ATOM     16  C   UNL     1      24.755   5.318  14.075  1.00  0.00    -0.035 C 
BRANCH  16  17
ATOM     17  C   UNL     1      25.006   5.587  12.588  1.00  0.00    -0.027 C 
BRANCH  17  18
ATOM     18  C   UNL     1      23.918   5.000  11.725  1.00  0.00    -0.048 A 
ATOM     19  C   UNL     1      23.597   5.596  10.506  1.00  0.00    -0.058 A 
ATOM     20  C   UNL     1      23.233   3.859  12.145  1.00  0.00    -0.058 A 
ATOM     21  C   UNL     1      22.591   5.053   9.707  1.00  0.00    -0.047 A 
ATOM     22  C   UNL     1      22.227   3.316  11.346  1.00  0.00    -0.047 A 
ATOM     23  C   UNL     1      21.906   3.913  10.127  1.00  0.00     0.059 A 
BRANCH  23  24
ATOM     24  C   UNL     1      20.857   3.345   9.294  1.00  0.00     0.335 C 
ATOM     25  O   UNL     1      19.767   2.931   9.699  1.00  0.00    -0.246 OA
BRANCH  24  26
ATOM     26  O   UNL     1      21.201   3.312   7.977  1.00  0.00    -0.478 OA
ATOM     27  H   UNL     1      20.441   3.060   7.409  1.00  0.00     0.297 HD
ENDBRANCH  24  26
ENDBRANCH  23  24
ENDBRANCH  17  18
ENDBRANCH  16  17
ENDBRANCH   1  16
TORSDOF 10
ENDMDL
MODEL 2
REMARK VINA RESULT:    -7.615      1.619      2.798
REMARK INTER + INTRA:         -12.350
REMARK INTER:                 -11.687
REMARK INTRA:                  -0.663
REMARK UNBOUND:                -0.729
REMARK SMILES O=C(O)c1ccc(CCCNS(=O)(=O)c2ccsc2C(=O)O)cc1
REMARK SMILES IDX 10 1 11 2 12 4 13 5 14 6 15 7 19 8 16 9 18 10 17 11 20 12
REMARK SMILES IDX 21 13 22 14 9 16 8 17 7 18 6 19 23 20 5 21 24 22 4 23 2 24
REMARK SMILES IDX 1 25 3 26
REMARK H PARENT 11 3 22 15 3 27
REMARK Flexibility Score: inf
ROOT
ATOM      1  C   UNL     1      25.395   5.221  15.394  1.00  0.00     0.011 C 
ENDROOT
BRANCH   1   2
ATOM      2  N   UNL     1      24.814   4.749  16.670  1.00  0.00    -0.211 NA
ATOM      3  H   UNL     1      23.920   4.255  16.552  1.00  0.00     0.141 HD
BRANCH   2   4
ATOM      4  S   UNL     1      24.992   5.680  18.080  1.00  0.00     0.242 S 
ATOM      5  O   UNL     1      26.270   6.366  18.047  1.00  0.00    -0.207 OA
ATOM      6  O   UNL     1      24.628   4.871  19.227  1.00  0.00    -0.207 OA
BRANCH   4   7
ATOM      7  C   UNL     1      23.721   6.892  17.878  1.00  0.00     0.107 A 
ATOM      8  C   UNL     1      23.871   8.076  17.190  1.00  0.00     0.132 A 
ATOM      9  C   UNL     1      22.409   6.749  18.416  1.00  0.00    -0.030 A 
ATOM     10  S   UNL     1      22.434   9.008  17.195  1.00  0.00    -0.136 S 
ATOM     11  C   UNL     1      21.607   7.829  18.120  1.00  0.00    -0.007 A 
BRANCH   8  12
ATOM     12  C   UNL     1      25.017   8.591  16.510  1.00  0.00     0.347 C 
ATOM     13  O   UNL     1      25.176   8.658  15.271  1.00  0.00    -0.245 OA
BRANCH  12  14
ATOM     14  O   UNL     1      25.998   9.040  17.356  1.00  0.00    -0.477 OA
ATOM     15  H   UNL     1      25.661   9.722  17.974  1.00  0.00     0.297 HD
ENDBRANCH  12  14
ENDBRANCH   8  12
ENDBRANCH   4   7
ENDBRANCH   2   4
ENDBRANCH   1   2
BRANCH   1  16
ATOM     16  C   UNL     1      24.324   5.278  14.311  1.00  0.00    -0.035 C 
BRANCH  16  17
ATOM     17  C   UNL     1      24.918   5.427  12.906  1.00  0.00    -0.027 C 
BRANCH  17  18
ATOM     18  C   UNL     1      23.965   4.939  11.844  1.00  0.00    -0.048 A 
ATOM     19  C   UNL     1      23.282   3.736  12.020  1.00  0.00    -0.058 A 
ATOM     20  C   UNL     1      23.765   5.692  10.687  1.00  0.00    -0.058 A 
ATOM     21  C   UNL     1      22.400   3.285  11.038  1.00  0.00    -0.047 A 
ATOM     22  C   UNL     1      22.883   5.241   9.705  1.00  0.00    -0.047 A 
ATOM     23  C   UNL     1      22.201   4.037   9.880  1.00  0.00     0.059 A 
BRANCH  23  24
ATOM     24  C   UNL     1      21.281   3.567   8.856  1.00  0.00     0.335 C 
ATOM     25  O   UNL     1      20.227   2.958   9.065  1.00  0.00    -0.246 OA
BRANCH  24  26
ATOM     26  O   UNL     1      21.703   3.872   7.598  1.00  0.00    -0.478 OA
ATOM     27  H   UNL     1      21.372   4.749   7.306  1.00  0.00     0.297 HD
ENDBRANCH  24  26
ENDBRANCH  23  24
ENDBRANCH  17  18
ENDBRANCH  16  17
ENDBRANCH   1  16
TORSDOF 10
ENDMDL
MODEL 3
REMARK VINA RESULT:    -7.529      2.775      7.789
REMARK INTER + INTRA:         -12.219
REMARK INTER:                 -10.909
REMARK INTRA:                  -1.310
REMARK UNBOUND:                -0.729
REMARK SMILES O=C(O)c1ccc(CCCNS(=O)(=O)c2ccsc2C(=O)O)cc1
REMARK SMILES IDX 10 1 11 2 12 4 13 5 14 6 15 7 19 8 16 9 18 10 17 11 20 12
REMARK SMILES IDX 21 13 22 14 9 16 8 17 7 18 6 19 23 20 5 21 24 22 4 23 2 24
REMARK SMILES IDX 1 25 3 26
REMARK H PARENT 11 3 22 15 3 27
REMARK Flexibility Score: inf
ROOT
ATOM      1  C   UNL     1      26.630   7.484  15.417  1.00  0.00     0.011 C 
ENDROOT
BRANCH   1   2
ATOM      2  N   UNL     1      26.022   6.589  14.408  1.00  0.00    -0.211 NA
ATOM      3  H   UNL     1      25.588   7.094  13.625  1.00  0.00     0.141 HD
BRANCH   2   4
ATOM      4  S   UNL     1      25.269   5.146  14.897  1.00  0.00     0.242 S 
ATOM      5  O   UNL     1      25.321   5.041  16.343  1.00  0.00    -0.207 OA
ATOM      6  O   UNL     1      25.753   4.060  14.069  1.00  0.00    -0.207 OA
BRANCH   4   7
ATOM      7  C   UNL     1      23.588   5.439  14.434  1.00  0.00     0.107 A 
ATOM      8  C   UNL     1      23.136   5.512  13.135  1.00  0.00     0.132 A 
ATOM      9  C   UNL     1      22.537   5.628  15.377  1.00  0.00    -0.030 A 
ATOM     10  S   UNL     1      21.451   5.807  13.057  1.00  0.00    -0.136 S 
ATOM     11  C   UNL     1      21.321   5.838  14.764  1.00  0.00    -0.007 A 
BRANCH   8  12
ATOM     12  C   UNL     1      23.863   5.379  11.912  1.00  0.00     0.347 C 
ATOM     13  O   UNL     1      23.589   4.608  10.967  1.00  0.00    -0.245 OA
BRANCH  12  14
ATOM     14  O   UNL     1      24.955   6.205  11.833  1.00  0.00    -0.477 OA
ATOM     15  H   UNL     1      24.926   6.911  12.513  1.00  0.00     0.297 HD
ENDBRANCH  12  14
ENDBRANCH   8  12
ENDBRANCH   4   7
ENDBRANCH   2   4
ENDBRANCH   1   2
BRANCH   1  16
ATOM     16  C   UNL     1      25.647   8.578  15.819  1.00  0.00    -0.035 C 
BRANCH  16  17
ATOM     17  C   UNL     1      25.767   8.959  17.298  1.00  0.00    -0.027 C 
BRANCH  17  18
ATOM     18  C   UNL     1      25.103   7.942  18.191  1.00  0.00    -0.048 A 
ATOM     19  C   UNL     1      25.862   7.216  19.108  1.00  0.00    -0.058 A 
ATOM     20  C   UNL     1      23.727   7.727  18.101  1.00  0.00    -0.058 A 
ATOM     21  C   UNL     1      25.247   6.276  19.934  1.00  0.00    -0.047 A 
ATOM     22  C   UNL     1      23.112   6.787  18.927  1.00  0.00    -0.047 A 
ATOM     23  C   UNL     1      23.872   6.061  19.843  1.00  0.00     0.059 A 
BRANCH  23  24
ATOM     24  C   UNL     1      23.230   5.080  20.706  1.00  0.00     0.335 C 
ATOM     25  O   UNL     1      22.058   5.126  21.092  1.00  0.00    -0.246 OA
BRANCH  24  26
ATOM     26  O   UNL     1      24.071   4.071  21.060  1.00  0.00    -0.478 OA
ATOM     27  H   UNL     1      24.885   4.065  20.510  1.00  0.00     0.297 HD
ENDBRANCH  24  26
ENDBRANCH  23  24
ENDBRANCH  17  18
ENDBRANCH  16  17
ENDBRANCH   1  16
TORSDOF 10
ENDMDL
MODEL 4
REMARK VINA RESULT:    -7.456      2.051      3.112
REMARK INTER + INTRA:         -12.107
REMARK INTER:                 -11.098
REMARK INTRA:                  -1.009
REMARK UNBOUND:                -0.729
REMARK SMILES O=C(O)c1ccc(CCCNS(=O)(=O)c2ccsc2C(=O)O)cc1
REMARK SMILES IDX 10 1 11 2 12 4 13 5 14 6 15 7 19 8 16 9 18 10 17 11 20 12
REMARK SMILES IDX 21 13 22 14 9 16 8 17 7 18 6 19 23 20 5 21 24 22 4 23 2 24
REMARK SMILES IDX 1 25 3 26
REMARK H PARENT 11 3 22 15 3 27
REMARK Flexibility Score: inf
ROOT
ATOM      1  C   UNL     1      25.716   5.079  15.146  1.00  0.00     0.011 C 
ENDROOT
BRANCH   1   2
ATOM      2  N   UNL     1      25.065   4.642  16.400  1.00  0.00    -0.211 NA
ATOM      3  H   UNL     1      24.281   3.994  16.247  1.00  0.00     0.141 HD
BRANCH   2   4
ATOM      4  S   UNL     1      24.920   5.723  17.703  1.00  0.00     0.242 S 
ATOM      5  O   UNL     1      26.242   6.095  18.170  1.00  0.00    -0.207 OA
ATOM      6  O   UNL     1      23.936   5.208  18.634  1.00  0.00    -0.207 OA
BRANCH   4   7
ATOM      7  C   UNL     1      24.202   7.137  16.922  1.00  0.00     0.107 A 
ATOM      8  C   UNL     1      22.948   7.164  16.353  1.00  0.00     0.132 A 
ATOM      9  C   UNL     1      24.867   8.393  16.812  1.00  0.00    -0.030 A 
ATOM     10  S   UNL     1      22.577   8.699  15.689  1.00  0.00    -0.136 S 
ATOM     11  C   UNL     1      24.096   9.332  16.163  1.00  0.00    -0.007 A 
BRANCH   8  12
ATOM     12  C   UNL     1      21.974   6.124  16.254  1.00  0.00     0.347 C 
ATOM     13  O   UNL     1      21.898   5.262  15.351  1.00  0.00    -0.245 OA
BRANCH  12  14
ATOM     14  O   UNL     1      21.064   6.128  17.280  1.00  0.00    -0.477 OA
ATOM     15  H   UNL     1      20.380   5.434  17.161  1.00  0.00     0.297 HD
ENDBRANCH  12  14
ENDBRANCH   8  12
ENDBRANCH   4   7
ENDBRANCH   2   4
ENDBRANCH   1   2
BRANCH   1  16
ATOM     16  C   UNL     1      24.972   4.520  13.938  1.00  0.00    -0.035 C 
BRANCH  16  17
ATOM     17  C   UNL     1      24.814   5.553  12.818  1.00  0.00    -0.027 C 
BRANCH  17  18
ATOM     18  C   UNL     1      23.892   5.059  11.731  1.00  0.00    -0.048 A 
ATOM     19  C   UNL     1      23.185   3.869  11.904  1.00  0.00    -0.058 A 
ATOM     20  C   UNL     1      23.744   5.792  10.554  1.00  0.00    -0.058 A 
ATOM     21  C   UNL     1      22.332   3.412  10.900  1.00  0.00    -0.047 A 
ATOM     22  C   UNL     1      22.891   5.336   9.549  1.00  0.00    -0.047 A 
ATOM     23  C   UNL     1      22.185   4.146   9.722  1.00  0.00     0.059 A 
BRANCH  23  24
ATOM     24  C   UNL     1      21.294   3.669   8.675  1.00  0.00     0.335 C 
ATOM     25  O   UNL     1      20.256   3.026   8.856  1.00  0.00    -0.246 OA
BRANCH  24  26
ATOM     26  O   UNL     1      21.727   4.011   7.430  1.00  0.00    -0.478 OA
ATOM     27  H   UNL     1      22.513   4.599   7.467  1.00  0.00     0.297 HD
ENDBRANCH  24  26
ENDBRANCH  23  24
ENDBRANCH  17  18
ENDBRANCH  16  17
ENDBRANCH   1  16
TORSDOF 10
ENDMDL
MODEL 5
REMARK VINA RESULT:    -7.393      3.385      8.984
REMARK INTER + INTRA:         -12.012
REMARK INTER:                 -11.140
REMARK INTRA:                  -0.872
REMARK UNBOUND:                -0.729
REMARK SMILES O=C(O)c1ccc(CCCNS(=O)(=O)c2ccsc2C(=O)O)cc1
REMARK SMILES IDX 10 1 11 2 12 4 13 5 14 6 15 7 19 8 16 9 18 10 17 11 20 12
REMARK SMILES IDX 21 13 22 14 9 16 8 17 7 18 6 19 23 20 5 21 24 22 4 23 2 24
REMARK SMILES IDX 1 25 3 26
REMARK H PARENT 11 3 22 15 3 27
REMARK Flexibility Score: inf
ROOT
ATOM      1  C   UNL     1      22.101   6.455  14.112  1.00  0.00     0.011 C 
ENDROOT
BRANCH   1   2
ATOM      2  N   UNL     1      23.290   6.760  13.286  1.00  0.00    -0.211 NA
ATOM      3  H   UNL     1      23.151   7.557  12.652  1.00  0.00     0.141 HD
BRANCH   2   4
ATOM      4  S   UNL     1      24.280   5.499  12.723  1.00  0.00     0.242 S 
ATOM      5  O   UNL     1      24.496   4.542  13.792  1.00  0.00    -0.207 OA
ATOM      6  O   UNL     1      25.409   6.068  12.015  1.00  0.00    -0.207 OA
BRANCH   4   7
ATOM      7  C   UNL     1      23.242   4.736  11.513  1.00  0.00     0.107 A 
ATOM      8  C   UNL     1      22.938   5.284  10.286  1.00  0.00     0.132 A 
ATOM      9  C   UNL     1      22.619   3.468  11.702  1.00  0.00    -0.030 A 
ATOM     10  S   UNL     1      21.906   4.271   9.368  1.00  0.00    -0.136 S 
ATOM     11  C   UNL     1      21.862   3.095  10.613  1.00  0.00    -0.007 A 
BRANCH   8  12
ATOM     12  C   UNL     1      23.357   6.525   9.718  1.00  0.00     0.347 C 
ATOM     13  O   UNL     1      24.168   6.675   8.777  1.00  0.00    -0.245 OA
BRANCH  12  14
ATOM     14  O   UNL     1      22.776   7.619  10.306  1.00  0.00    -0.477 OA
ATOM     15  H   UNL     1      22.096   8.025   9.726  1.00  0.00     0.297 HD
ENDBRANCH  12  14
ENDBRANCH   8  12
ENDBRANCH   4   7
ENDBRANCH   2   4
ENDBRANCH   1   2
BRANCH   1  16
ATOM     16  C   UNL     1      22.388   6.740  15.582  1.00  0.00    -0.035 C 
BRANCH  16  17
ATOM     17  C   UNL     1      23.653   7.580  15.780  1.00  0.00    -0.027 C 
BRANCH  17  18
ATOM     18  C   UNL     1      24.397   7.179  17.029  1.00  0.00    -0.048 A 
ATOM     19  C   UNL     1      24.938   8.157  17.863  1.00  0.00    -0.058 A 
ATOM     20  C   UNL     1      24.545   5.829  17.351  1.00  0.00    -0.058 A 
ATOM     21  C   UNL     1      25.625   7.786  19.019  1.00  0.00    -0.047 A 
ATOM     22  C   UNL     1      25.232   5.458  18.506  1.00  0.00    -0.047 A 
ATOM     23  C   UNL     1      25.773   6.437  19.340  1.00  0.00     0.059 A 
BRANCH  23  24
ATOM     24  C   UNL     1      26.490   6.050  20.545  1.00  0.00     0.335 C 
ATOM     25  O   UNL     1      26.236   6.445  21.687  1.00  0.00    -0.246 OA
BRANCH  24  26
ATOM     26  O   UNL     1      27.504   5.178  20.289  1.00  0.00    -0.478 OA
ATOM     27  H   UNL     1      28.081   5.496  19.562  1.00  0.00     0.297 HD
ENDBRANCH  24  26
ENDBRANCH  23  24
ENDBRANCH  17  18
ENDBRANCH  16  17
ENDBRANCH   1  16
TORSDOF 10
ENDMDL
MODEL 6
REMARK VINA RESULT:    -7.352      2.595      3.424
REMARK INTER + INTRA:         -11.949
REMARK INTER:                 -11.153
REMARK INTRA:                  -0.795
REMARK UNBOUND:                -0.729
REMARK SMILES O=C(O)c1ccc(CCCNS(=O)(=O)c2ccsc2C(=O)O)cc1
REMARK SMILES IDX 10 1 11 2 12 4 13 5 14 6 15 7 19 8 16 9 18 10 17 11 20 12
REMARK SMILES IDX 21 13 22 14 9 16 8 17 7 18 6 19 23 20 5 21 24 22 4 23 2 24
REMARK SMILES IDX 1 25 3 26
REMARK H PARENT 11 3 22 15 3 27
REMARK Flexibility Score: inf
ROOT
ATOM      1  C   UNL     1      22.698   5.397  14.270  1.00  0.00     0.011 C 
ENDROOT
BRANCH   1   2
ATOM      2  N   UNL     1      24.021   4.908  14.716  1.00  0.00    -0.211 NA
ATOM      3  H   UNL     1      23.967   4.245  15.500  1.00  0.00     0.141 HD
BRANCH   2   4
ATOM      4  S   UNL     1      25.365   5.947  14.687  1.00  0.00     0.242 S 
ATOM      5  O   UNL     1      25.388   6.670  13.430  1.00  0.00    -0.207 OA
ATOM      6  O   UNL     1      26.536   5.215  15.128  1.00  0.00    -0.207 OA
BRANCH   4   7
ATOM      7  C   UNL     1      24.962   7.097  15.967  1.00  0.00     0.107 A 
ATOM      8  C   UNL     1      25.069   6.836  17.316  1.00  0.00     0.132 A 
ATOM      9  C   UNL     1      24.485   8.416  15.715  1.00  0.00    -0.030 A 
ATOM     10  S   UNL     1      24.595   8.177  18.270  1.00  0.00    -0.136 S 
ATOM     11  C   UNL     1      24.244   9.112  16.879  1.00  0.00    -0.007 A 
BRANCH   8  12
ATOM     12  C   UNL     1      25.503   5.647  17.978  1.00  0.00     0.347 C 
ATOM     13  O   UNL     1      26.362   5.574  18.885  1.00  0.00    -0.245 OA
BRANCH  12  14
ATOM     14  O   UNL     1      24.880   4.512  17.528  1.00  0.00    -0.477 OA
ATOM     15  H   UNL     1      24.034   4.718  17.075  1.00  0.00     0.297 HD
ENDBRANCH  12  14
ENDBRANCH   8  12
ENDBRANCH   4   7
ENDBRANCH   2   4
ENDBRANCH   1   2
BRANCH   1  16
ATOM     16  C   UNL     1      22.159   4.520  13.146  1.00  0.00    -0.035 C 
BRANCH  16  17
ATOM     17  C   UNL     1      23.258   4.058  12.184  1.00  0.00    -0.027 C 
BRANCH  17  18
ATOM     18  C   UNL     1      23.125   4.711  10.831  1.00  0.00    -0.048 A 
ATOM     19  C   UNL     1      22.353   4.107   9.839  1.00  0.00    -0.058 A 
ATOM     20  C   UNL     1      23.771   5.919  10.572  1.00  0.00    -0.058 A 
ATOM     21  C   UNL     1      22.228   4.711   8.588  1.00  0.00    -0.047 A 
ATOM     22  C   UNL     1      23.647   6.523   9.321  1.00  0.00    -0.047 A 
ATOM     23  C   UNL     1      22.876   5.919   8.329  1.00  0.00     0.059 A 
BRANCH  23  24
ATOM     24  C   UNL     1      22.746   6.550   7.024  1.00  0.00     0.335 C 
ATOM     25  O   UNL     1      22.931   5.991   5.938  1.00  0.00    -0.246 OA
BRANCH  24  26
ATOM     26  O   UNL     1      22.387   7.859   7.114  1.00  0.00    -0.478 OA
ATOM     27  H   UNL     1      22.479   8.322   6.252  1.00  0.00     0.297 HD
ENDBRANCH  24  26
ENDBRANCH  23  24
ENDBRANCH  17  18
ENDBRANCH  16  17
ENDBRANCH   1  16
TORSDOF 10
ENDMDL
MODEL 7
REMARK VINA RESULT:    -7.338      2.251      2.993
REMARK INTER + INTRA:         -11.927
REMARK INTER:                 -11.272
REMARK INTRA:                  -0.656
REMARK UNBOUND:                -0.729
REMARK SMILES O=C(O)c1ccc(CCCNS(=O)(=O)c2ccsc2C(=O)O)cc1
REMARK SMILES IDX 10 1 11 2 12 4 13 5 14 6 15 7 19 8 16 9 18 10 17 11 20 12
REMARK SMILES IDX 21 13 22 14 9 16 8 17 7 18 6 19 23 20 5 21 24 22 4 23 2 24
REMARK SMILES IDX 1 25 3 26
REMARK H PARENT 11 3 22 15 3 27
REMARK Flexibility Score: inf
ROOT
ATOM      1  C   UNL     1      24.031   5.823  13.180  1.00  0.00     0.011 C 
ENDROOT
BRANCH   1   2
ATOM      2  N   UNL     1      25.358   6.354  13.561  1.00  0.00    -0.211 NA
ATOM      3  H   UNL     1      25.991   6.482  12.762  1.00  0.00     0.141 HD
BRANCH   2   4
ATOM      4  S   UNL     1      26.070   5.885  15.031  1.00  0.00     0.242 S 
ATOM      5  O   UNL     1      27.493   6.161  14.988  1.00  0.00    -0.207 OA
ATOM      6  O   UNL     1      25.595   4.561  15.382  1.00  0.00    -0.207 OA
BRANCH   4   7
ATOM      7  C   UNL     1      25.331   7.017  16.170  1.00  0.00     0.107 A 
ATOM      8  C   UNL     1      25.330   6.861  17.539  1.00  0.00     0.132 A 
ATOM      9  C   UNL     1      24.661   8.208  15.767  1.00  0.00    -0.030 A 
ATOM     10  S   UNL     1      24.525   8.148  18.332  1.00  0.00    -0.136 S 
ATOM     11  C   UNL     1      24.174   8.918  16.843  1.00  0.00    -0.007 A 
BRANCH   8  12
ATOM     12  C   UNL     1      25.889   5.813  18.333  1.00  0.00     0.347 C 
ATOM     13  O   UNL     1      26.886   5.903  19.083  1.00  0.00    -0.245 OA
BRANCH  12  14
ATOM     14  O   UNL     1      25.222   4.622  18.215  1.00  0.00    -0.477 OA
ATOM     15  H   UNL     1      25.251   4.279  17.296  1.00  0.00     0.297 HD
ENDBRANCH  12  14
ENDBRANCH   8  12
ENDBRANCH   4   7
ENDBRANCH   2   4
ENDBRANCH   1   2
BRANCH   1  16
ATOM     16  C   UNL     1      24.150   4.931  11.949  1.00  0.00    -0.035 C 
BRANCH  16  17
ATOM     17  C   UNL     1      23.344   5.463  10.760  1.00  0.00    -0.027 C 
BRANCH  17  18
ATOM     18  C   UNL     1      22.082   4.666  10.542  1.00  0.00    -0.048 A 
ATOM     19  C   UNL     1      21.946   3.403  11.119  1.00  0.00    -0.058 A 
ATOM     20  C   UNL     1      21.050   5.192   9.765  1.00  0.00    -0.058 A 
ATOM     21  C   UNL     1      20.779   2.667  10.918  1.00  0.00    -0.047 A 
ATOM     22  C   UNL     1      19.882   4.455   9.564  1.00  0.00    -0.047 A 
ATOM     23  C   UNL     1      19.747   3.193  10.140  1.00  0.00     0.059 A 
BRANCH  23  24
ATOM     24  C   UNL     1      18.529   2.425   9.931  1.00  0.00     0.335 C 
ATOM     25  O   UNL     1      17.846   1.910  10.821  1.00  0.00    -0.246 OA
BRANCH  24  26
ATOM     26  O   UNL     1      18.200   2.322   8.614  1.00  0.00    -0.478 OA
ATOM     27  H   UNL     1      18.977   2.471   8.032  1.00  0.00     0.297 HD
ENDBRANCH  24  26
ENDBRANCH  23  24
ENDBRANCH  17  18
ENDBRANCH  16  17
ENDBRANCH   1  16
TORSDOF 10
ENDMDL
MODEL 8
REMARK VINA RESULT:    -7.235      1.337      1.810
REMARK INTER + INTRA:         -11.771
REMARK INTER:                 -11.189
REMARK INTRA:                  -0.582
REMARK UNBOUND:                -0.729
REMARK SMILES O=C(O)c1ccc(CCCNS(=O)(=O)c2ccsc2C(=O)O)cc1
REMARK SMILES IDX 10 1 11 2 12 4 13 5 14 6 15 7 19 8 16 9 18 10 17 11 20 12
REMARK SMILES IDX 21 13 22 14 9 16 8 17 7 18 6 19 23 20 5 21 24 22 4 23 2 24
REMARK SMILES IDX 1 25 3 26
REMARK H PARENT 11 3 22 15 3 27
REMARK Flexibility Score: inf
ROOT
ATOM      1  C   UNL     1      25.844   4.611  14.653  1.00  0.00     0.011 C 
ENDROOT
BRANCH   1   2
ATOM      2  N   UNL     1      25.308   4.873  16.006  1.00  0.00    -0.211 NA
ATOM      3  H   UNL     1      24.467   4.324  16.224  1.00  0.00     0.141 HD
BRANCH   2   4
ATOM      4  S   UNL     1      25.393   6.437  16.666  1.00  0.00     0.242 S 
ATOM      5  O   UNL     1      25.618   7.397  15.602  1.00  0.00    -0.207 OA
ATOM      6  O   UNL     1      26.267   6.412  17.823  1.00  0.00    -0.207 OA
BRANCH   4   7
ATOM      7  C   UNL     1      23.747   6.667  17.266  1.00  0.00     0.107 A 
ATOM      8  C   UNL     1      23.347   6.430  18.563  1.00  0.00     0.132 A 
ATOM      9  C   UNL     1      22.672   7.125  16.451  1.00  0.00    -0.030 A 
ATOM     10  S   UNL     1      21.682   6.760  18.792  1.00  0.00    -0.136 S 
ATOM     11  C   UNL     1      21.491   7.221  17.154  1.00  0.00    -0.007 A 
BRANCH   8  12
ATOM     12  C   UNL     1      24.111   5.968  19.678  1.00  0.00     0.347 C 
ATOM     13  O   UNL     1      24.180   4.789  20.092  1.00  0.00    -0.245 OA
BRANCH  12  14
ATOM     14  O   UNL     1      24.812   6.962  20.310  1.00  0.00    -0.477 OA
ATOM     15  H   UNL     1      25.720   6.672  20.546  1.00  0.00     0.297 HD
ENDBRANCH  12  14
ENDBRANCH   8  12
ENDBRANCH   4   7
ENDBRANCH   2   4
ENDBRANCH   1   2
BRANCH   1  16
ATOM     16  C   UNL     1      24.705   4.475  13.648  1.00  0.00    -0.035 C 
BRANCH  16  17
ATOM     17  C   UNL     1      24.652   5.645  12.660  1.00  0.00    -0.027 C 
BRANCH  17  18
ATOM     18  C   UNL     1      23.844   5.302  11.434  1.00  0.00    -0.048 A 
ATOM     19  C   UNL     1      23.819   6.177  10.348  1.00  0.00    -0.058 A 
ATOM     20  C   UNL     1      23.123   4.108  11.384  1.00  0.00    -0.058 A 
ATOM     21  C   UNL     1      23.072   5.859   9.214  1.00  0.00    -0.047 A 
ATOM     22  C   UNL     1      22.377   3.790  10.250  1.00  0.00    -0.047 A 
ATOM     23  C   UNL     1      22.351   4.666   9.165  1.00  0.00     0.059 A 
BRANCH  23  24
ATOM     24  C   UNL     1      21.572   4.334   7.981  1.00  0.00     0.335 C 
ATOM     25  O   UNL     1      21.644   4.911   6.892  1.00  0.00    -0.246 OA
BRANCH  24  26
ATOM     26  O   UNL     1      20.724   3.290   8.193  1.00  0.00    -0.478 OA
ATOM     27  H   UNL     1      19.941   3.558   8.721  1.00  0.00     0.297 HD
ENDBRANCH  24  26
ENDBRANCH  23  24
ENDBRANCH  17  18
ENDBRANCH  16  17
ENDBRANCH   1  16
TORSDOF 10
ENDMDL
MODEL 9
REMARK VINA RESULT:    -7.227      2.412      3.284
REMARK INTER + INTRA:         -11.758
REMARK INTER:                 -11.170
REMARK INTRA:                  -0.589
REMARK UNBOUND:                -0.729
REMARK SMILES O=C(O)c1ccc(CCCNS(=O)(=O)c2ccsc2C(=O)O)cc1
REMARK SMILES IDX 10 1 11 2 12 4 13 5 14 6 15 7 19 8 16 9 18 10 17 11 20 12
REMARK SMILES IDX 21 13 22 14 9 16 8 17 7 18 6 19 23 20 5 21 24 22 4 23 2 24
REMARK SMILES IDX 1 25 3 26
REMARK H PARENT 11 3 22 15 3 27
REMARK Flexibility Score: inf
ROOT
ATOM      1  C   UNL     1      24.778   4.847  13.213  1.00  0.00     0.011 C 
ENDROOT
BRANCH   1   2
ATOM      2  N   UNL     1      24.632   5.039  14.673  1.00  0.00    -0.211 NA
ATOM      3  H   UNL     1      24.716   4.166  15.209  1.00  0.00     0.141 HD
BRANCH   2   4
ATOM      4  S   UNL     1      23.547   6.202  15.272  1.00  0.00     0.242 S 
ATOM      5  O   UNL     1      22.489   5.539  16.011  1.00  0.00    -0.207 OA
ATOM      6  O   UNL     1      23.221   7.132  14.209  1.00  0.00    -0.207 OA
BRANCH   4   7
ATOM      7  C   UNL     1      24.555   7.075  16.431  1.00  0.00     0.107 A 
ATOM      8  C   UNL     1      25.034   6.543  17.609  1.00  0.00     0.132 A 
ATOM      9  C   UNL     1      24.969   8.427  16.249  1.00  0.00    -0.030 A 
ATOM     10  S   UNL     1      25.978   7.670  18.487  1.00  0.00    -0.136 S 
ATOM     11  C   UNL     1      25.747   8.876  17.293  1.00  0.00    -0.007 A 
BRANCH   8  12
ATOM     12  C   UNL     1      24.849   5.236  18.155  1.00  0.00     0.347 C 
ATOM     13  O   UNL     1      24.411   4.963  19.294  1.00  0.00    -0.245 OA
BRANCH  12  14
ATOM     14  O   UNL     1      25.204   4.228  17.295  1.00  0.00    -0.477 OA
ATOM     15  H   UNL     1      25.193   4.528  16.361  1.00  0.00     0.297 HD
ENDBRANCH  12  14
ENDBRANCH   8  12
ENDBRANCH   4   7
ENDBRANCH   2   4
ENDBRANCH   1   2
BRANCH   1  16
ATOM     16  C   UNL     1      23.862   3.729  12.730  1.00  0.00    -0.035 C 
BRANCH  16  17
ATOM     17  C   UNL     1      22.484   4.244  12.301  1.00  0.00    -0.027 C 
BRANCH  17  18
ATOM     18  C   UNL     1      22.445   4.569  10.829  1.00  0.00    -0.048 A 
ATOM     19  C   UNL     1      23.020   5.750  10.361  1.00  0.00    -0.058 A 
ATOM     20  C   UNL     1      21.836   3.688   9.935  1.00  0.00    -0.058 A 
ATOM     21  C   UNL     1      22.985   6.051   8.999  1.00  0.00    -0.047 A 
ATOM     22  C   UNL     1      21.801   3.989   8.574  1.00  0.00    -0.047 A 
ATOM     23  C   UNL     1      22.375   5.170   8.106  1.00  0.00     0.059 A 
BRANCH  23  24
ATOM     24  C   UNL     1      22.338   5.484   6.685  1.00  0.00     0.335 C 
ATOM     25  O   UNL     1      21.691   6.401   6.172  1.00  0.00    -0.246 OA
BRANCH  24  26
ATOM     26  O   UNL     1      23.112   4.642   5.948  1.00  0.00    -0.478 OA
ATOM     27  H   UNL     1      22.589   4.171   5.263  1.00  0.00     0.297 HD
ENDBRANCH  24  26
ENDBRANCH  23  24
ENDBRANCH  17  18
ENDBRANCH  16  17
ENDBRANCH   1  16
TORSDOF 10
ENDMDL
MODEL 10
REMARK VINA RESULT:    -7.169      3.236      8.880
REMARK INTER + INTRA:         -11.669
REMARK INTER:                 -10.765
REMARK INTRA:                  -0.904
REMARK UNBOUND:                -0.729
REMARK SMILES O=C(O)c1ccc(CCCNS(=O)(=O)c2ccsc2C(=O)O)cc1
REMARK SMILES IDX 10 1 11 2 12 4 13 5 14 6 15 7 19 8 16 9 18 10 17 11 20 12
REMARK SMILES IDX 21 13 22 14 9 16 8 17 7 18 6 19 23 20 5 21 24 22 4 23 2 24
REMARK SMILES IDX 1 25 3 26
REMARK H PARENT 11 3 22 15 3 27
REMARK Flexibility Score: inf
ROOT
ATOM      1  C   UNL     1      22.413   6.647  13.887  1.00  0.00     0.011 C 
ENDROOT
BRANCH   1   2
ATOM      2  N   UNL     1      22.675   5.193  13.822  1.00  0.00    -0.211 NA
ATOM      3  H   UNL     1      22.648   4.733  14.740  1.00  0.00     0.141 HD
BRANCH   2   4
ATOM      4  S   UNL     1      23.788   4.581  12.693  1.00  0.00     0.242 S 
ATOM      5  O   UNL     1      23.738   3.131  12.704  1.00  0.00    -0.207 OA
ATOM      6  O   UNL     1      25.054   5.267  12.861  1.00  0.00    -0.207 OA
BRANCH   4   7
ATOM      7  C   UNL     1      23.098   5.137  11.164  1.00  0.00     0.107 A 
ATOM      8  C   UNL     1      21.838   4.814  10.711  1.00  0.00     0.132 A 
ATOM      9  C   UNL     1      23.794   5.982  10.251  1.00  0.00    -0.030 A 
ATOM     10  S   UNL     1      21.498   5.528   9.192  1.00  0.00    -0.136 S 
ATOM     11  C   UNL     1      23.039   6.272   9.136  1.00  0.00    -0.007 A 
BRANCH   8  12
ATOM     12  C   UNL     1      20.835   3.999  11.322  1.00  0.00     0.347 C 
ATOM     13  O   UNL     1      20.629   2.786  11.100  1.00  0.00    -0.245 OA
BRANCH  12  14
ATOM     14  O   UNL     1      20.059   4.675  12.228  1.00  0.00    -0.477 OA
ATOM     15  H   UNL     1      19.501   5.354  11.793  1.00  0.00     0.297 HD
ENDBRANCH  12  14
ENDBRANCH   8  12
ENDBRANCH   4   7
ENDBRANCH   2   4
ENDBRANCH   1   2
BRANCH   1  16
ATOM     16  C   UNL     1      22.804   7.197  15.254  1.00  0.00    -0.035 C 
BRANCH  16  17
ATOM     17  C   UNL     1      24.300   7.511  15.353  1.00  0.00    -0.027 C 
BRANCH  17  18
ATOM     18  C   UNL     1      24.865   7.114  16.694  1.00  0.00    -0.048 A 
ATOM     19  C   UNL     1      24.812   5.783  17.107  1.00  0.00    -0.058 A 
ATOM     20  C   UNL     1      25.441   8.078  17.521  1.00  0.00    -0.058 A 
ATOM     21  C   UNL     1      25.335   5.416  18.346  1.00  0.00    -0.047 A 
ATOM     22  C   UNL     1      25.964   7.711  18.761  1.00  0.00    -0.047 A 
ATOM     23  C   UNL     1      25.910   6.380  19.174  1.00  0.00     0.059 A 
BRANCH  23  24
ATOM     24  C   UNL     1      26.456   5.997  20.467  1.00  0.00     0.335 C 
ATOM     25  O   UNL     1      25.989   6.318  21.564  1.00  0.00    -0.246 OA
BRANCH  24  26
ATOM     26  O   UNL     1      27.571   5.224  20.352  1.00  0.00    -0.478 OA
ATOM     27  H   UNL     1      27.458   4.355  20.796  1.00  0.00     0.297 HD
ENDBRANCH  24  26
ENDBRANCH  23  24
ENDBRANCH  17  18
ENDBRANCH  16  17
ENDBRANCH   1  16
TORSDOF 10
ENDMDL
MODEL 11
REMARK VINA RESULT:    -7.082      2.838      4.040
REMARK INTER + INTRA:         -11.538
REMARK INTER:                 -10.809
REMARK INTRA:                  -0.728
REMARK UNBOUND:                -0.729
REMARK SMILES O=C(O)c1ccc(CCCNS(=O)(=O)c2ccsc2C(=O)O)cc1
REMARK SMILES IDX 10 1 11 2 12 4 13 5 14 6 15 7 19 8 16 9 18 10 17 11 20 12
REMARK SMILES IDX 21 13 22 14 9 16 8 17 7 18 6 19 23 20 5 21 24 22 4 23 2 24
REMARK SMILES IDX 1 25 3 26
REMARK H PARENT 11 3 22 15 3 27
REMARK Flexibility Score: inf
ROOT
ATOM      1  C   UNL     1      24.753   5.221  12.602  1.00  0.00     0.011 C 
ENDROOT
BRANCH   1   2
ATOM      2  N   UNL     1      24.156   4.870  13.909  1.00  0.00    -0.211 NA
ATOM      3  H   UNL     1      23.902   3.877  13.987  1.00  0.00     0.141 HD
BRANCH   2   4
ATOM      4  S   UNL     1      23.148   5.981  14.707  1.00  0.00     0.242 S 
ATOM      5  O   UNL     1      21.874   5.352  15.002  1.00  0.00    -0.207 OA
ATOM      6  O   UNL     1      23.189   7.246  14.000  1.00  0.00    -0.207 OA
BRANCH   4   7
ATOM      7  C   UNL     1      24.005   6.215  16.235  1.00  0.00     0.107 A 
ATOM      8  C   UNL     1      25.339   6.544  16.342  1.00  0.00     0.132 A 
ATOM      9  C   UNL     1      23.383   6.083  17.511  1.00  0.00    -0.030 A 
ATOM     10  S   UNL     1      25.835   6.692  17.974  1.00  0.00    -0.136 S 
ATOM     11  C   UNL     1      24.265   6.316  18.543  1.00  0.00    -0.007 A 
BRANCH   8  12
ATOM     12  C   UNL     1      26.304   6.763  15.312  1.00  0.00     0.347 C 
ATOM     13  O   UNL     1      27.237   5.994  14.994  1.00  0.00    -0.245 OA
BRANCH  12  14
ATOM     14  O   UNL     1      26.133   7.950  14.647  1.00  0.00    -0.477 OA
ATOM     15  H   UNL     1      25.335   8.429  14.958  1.00  0.00     0.297 HD
ENDBRANCH  12  14
ENDBRANCH   8  12
ENDBRANCH   4   7
ENDBRANCH   2   4
ENDBRANCH   1   2
BRANCH   1  16
ATOM     16  C   UNL     1      23.757   4.964  11.476  1.00  0.00    -0.035 C 
BRANCH  16  17
ATOM     17  C   UNL     1      22.930   3.694  11.704  1.00  0.00    -0.027 C 
BRANCH  17  18
ATOM     18  C   UNL     1      21.731   3.640  10.791  1.00  0.00    -0.048 A 
ATOM     19  C   UNL     1      20.645   2.827  11.114  1.00  0.00    -0.058 A 
ATOM     20  C   UNL     1      21.706   4.405   9.624  1.00  0.00    -0.058 A 
ATOM     21  C   UNL     1      19.535   2.777  10.270  1.00  0.00    -0.047 A 
ATOM     22  C   UNL     1      20.597   4.355   8.780  1.00  0.00    -0.047 A 
ATOM     23  C   UNL     1      19.512   3.541   9.103  1.00  0.00     0.059 A 
BRANCH  23  24
ATOM     24  C   UNL     1      18.354   3.490   8.223  1.00  0.00     0.335 C 
ATOM     25  O   UNL     1      17.903   4.441   7.577  1.00  0.00    -0.246 OA
BRANCH  24  26
ATOM     26  O   UNL     1      17.794   2.251   8.174  1.00  0.00    -0.478 OA
ATOM     27  H   UNL     1      18.121   1.674   8.898  1.00  0.00     0.297 HD
ENDBRANCH  24  26
ENDBRANCH  23  24
ENDBRANCH  17  18
ENDBRANCH  16  17
ENDBRANCH   1  16
TORSDOF 10
ENDMDL
MODEL 12
REMARK VINA RESULT:    -7.079      6.097      8.217
REMARK INTER + INTRA:         -11.533
REMARK INTER:                 -10.529
REMARK INTRA:                  -1.003
REMARK UNBOUND:                -0.729
REMARK SMILES O=C(O)c1ccc(CCCNS(=O)(=O)c2ccsc2C(=O)O)cc1
REMARK SMILES IDX 10 1 11 2 12 4 13 5 14 6 15 7 19 8 16 9 18 10 17 11 20 12
REMARK SMILES IDX 21 13 22 14 9 16 8 17 7 18 6 19 23 20 5 21 24 22 4 23 2 24
REMARK SMILES IDX 1 25 3 26
REMARK H PARENT 11 3 22 15 3 27
REMARK Flexibility Score: inf
ROOT
ATOM      1  C   UNL     1      20.301   8.407  18.079  1.00  0.00     0.011 C 
ENDROOT
BRANCH   1   2
ATOM      2  N   UNL     1      20.329   8.661  19.536  1.00  0.00    -0.211 NA
ATOM      3  H   UNL     1      21.130   8.225  20.010  1.00  0.00     0.141 HD
BRANCH   2   4
ATOM      4  S   UNL     1      18.875   8.745  20.411  1.00  0.00     0.242 S 
ATOM      5  O   UNL     1      18.165   7.486  20.289  1.00  0.00    -0.207 OA
ATOM      6  O   UNL     1      18.207   9.992  20.095  1.00  0.00    -0.207 OA
BRANCH   4   7
ATOM      7  C   UNL     1      19.460   8.880  22.074  1.00  0.00     0.107 A 
ATOM      8  C   UNL     1      20.086   7.868  22.767  1.00  0.00     0.132 A 
ATOM      9  C   UNL     1      19.333  10.065  22.855  1.00  0.00    -0.030 A 
ATOM     10  S   UNL     1      20.519   8.348  24.353  1.00  0.00    -0.136 S 
ATOM     11  C   UNL     1      19.868   9.914  24.116  1.00  0.00    -0.007 A 
BRANCH   8  12
ATOM     12  C   UNL     1      20.401   6.539  22.347  1.00  0.00     0.347 C 
ATOM     13  O   UNL     1      21.485   6.155  21.854  1.00  0.00    -0.245 OA
BRANCH  12  14
ATOM     14  O   UNL     1      19.373   5.650  22.528  1.00  0.00    -0.477 OA
ATOM     15  H   UNL     1      18.623   5.835  21.923  1.00  0.00     0.297 HD
ENDBRANCH  12  14
ENDBRANCH   8  12
ENDBRANCH   4   7
ENDBRANCH   2   4
ENDBRANCH   1   2
BRANCH   1  16
ATOM     16  C   UNL     1      21.576   8.926  17.424  1.00  0.00    -0.035 C 
BRANCH  16  17
ATOM     17  C   UNL     1      22.454   7.797  16.874  1.00  0.00    -0.027 C 
BRANCH  17  18
ATOM     18  C   UNL     1      23.533   7.404  17.852  1.00  0.00    -0.048 A 
ATOM     19  C   UNL     1      23.306   6.376  18.766  1.00  0.00    -0.058 A 
ATOM     20  C   UNL     1      24.760   8.069  17.841  1.00  0.00    -0.058 A 
ATOM     21  C   UNL     1      24.305   6.013  19.669  1.00  0.00    -0.047 A 
ATOM     22  C   UNL     1      25.759   7.705  18.744  1.00  0.00    -0.047 A 
ATOM     23  C   UNL     1      25.531   6.678  19.659  1.00  0.00     0.059 A 
BRANCH  23  24
ATOM     24  C   UNL     1      26.573   6.298  20.601  1.00  0.00     0.335 C 
ATOM     25  O   UNL     1      27.602   5.679  20.318  1.00  0.00    -0.246 OA
BRANCH  24  26
ATOM     26  O   UNL     1      26.298   6.705  21.870  1.00  0.00    -0.478 OA
ATOM     27  H   UNL     1      25.385   6.463  22.140  1.00  0.00     0.297 HD
ENDBRANCH  24  26
ENDBRANCH  23  24
ENDBRANCH  17  18
ENDBRANCH  16  17
ENDBRANCH   1  16
TORSDOF 10
ENDMDL
MODEL 13
REMARK VINA RESULT:    -7.069      2.610      3.550
REMARK INTER + INTRA:         -11.517
REMARK INTER:                 -10.793
REMARK INTRA:                  -0.724
REMARK UNBOUND:                -0.729
REMARK SMILES O=C(O)c1ccc(CCCNS(=O)(=O)c2ccsc2C(=O)O)cc1
REMARK SMILES IDX 10 1 11 2 12 4 13 5 14 6 15 7 19 8 16 9 18 10 17 11 20 12
REMARK SMILES IDX 21 13 22 14 9 16 8 17 7 18 6 19 23 20 5 21 24 22 4 23 2 24
REMARK SMILES IDX 1 25 3 26
REMARK H PARENT 11 3 22 15 3 27
REMARK Flexibility Score: inf
ROOT
ATOM      1  C   UNL     1      22.180   5.343  14.194  1.00  0.00     0.011 C 
ENDROOT
BRANCH   1   2
ATOM      2  N   UNL     1      22.444   5.248  15.646  1.00  0.00    -0.211 NA
ATOM      3  H   UNL     1      22.082   4.385  16.070  1.00  0.00     0.141 HD
BRANCH   2   4
ATOM      4  S   UNL     1      22.404   6.647  16.609  1.00  0.00     0.242 S 
ATOM      5  O   UNL     1      21.065   6.833  17.135  1.00  0.00    -0.207 OA
ATOM      6  O   UNL     1      23.064   7.726  15.900  1.00  0.00    -0.207 OA
BRANCH   4   7
ATOM      7  C   UNL     1      23.458   6.192  17.953  1.00  0.00     0.107 A 
ATOM      8  C   UNL     1      24.711   5.637  17.812  1.00  0.00     0.132 A 
ATOM      9  C   UNL     1      23.100   6.363  19.322  1.00  0.00    -0.030 A 
ATOM     10  S   UNL     1      25.449   5.323  19.325  1.00  0.00    -0.136 S 
ATOM     11  C   UNL     1      24.092   5.931  20.175  1.00  0.00    -0.007 A 
BRANCH   8  12
ATOM     12  C   UNL     1      25.428   5.308  16.622  1.00  0.00     0.347 C 
ATOM     13  O   UNL     1      26.063   6.104  15.895  1.00  0.00    -0.245 OA
BRANCH  12  14
ATOM     14  O   UNL     1      25.376   3.976  16.301  1.00  0.00    -0.477 OA
ATOM     15  H   UNL     1      26.194   3.680  15.848  1.00  0.00     0.297 HD
ENDBRANCH  12  14
ENDBRANCH   8  12
ENDBRANCH   4   7
ENDBRANCH   2   4
ENDBRANCH   1   2
BRANCH   1  16
ATOM     16  C   UNL     1      23.414   4.927  13.401  1.00  0.00    -0.035 C 
BRANCH  16  17
ATOM     17  C   UNL     1      23.080   3.957  12.263  1.00  0.00    -0.027 C 
BRANCH  17  18
ATOM     18  C   UNL     1      23.048   4.657  10.927  1.00  0.00    -0.048 A 
ATOM     19  C   UNL     1      22.292   4.128   9.881  1.00  0.00    -0.058 A 
ATOM     20  C   UNL     1      23.772   5.834  10.738  1.00  0.00    -0.058 A 
ATOM     21  C   UNL     1      22.261   4.775   8.646  1.00  0.00    -0.047 A 
ATOM     22  C   UNL     1      23.741   6.482   9.503  1.00  0.00    -0.047 A 
ATOM     23  C   UNL     1      22.986   5.952   8.457  1.00  0.00     0.059 A 
BRANCH  23  24
ATOM     24  C   UNL     1      22.954   6.628   7.169  1.00  0.00     0.335 C 
ATOM     25  O   UNL     1      23.517   6.237   6.142  1.00  0.00    -0.246 OA
BRANCH  24  26
ATOM     26  O   UNL     1      22.217   7.772   7.201  1.00  0.00    -0.478 OA
ATOM     27  H   UNL     1      21.371   7.674   6.712  1.00  0.00     0.297 HD
ENDBRANCH  24  26
ENDBRANCH  23  24
ENDBRANCH  17  18
ENDBRANCH  16  17
ENDBRANCH   1  16
TORSDOF 10
ENDMDL
MODEL 14
REMARK VINA RESULT:    -7.047      2.703      3.346
REMARK INTER + INTRA:         -11.484
REMARK INTER:                 -10.643
REMARK INTRA:                  -0.841
REMARK UNBOUND:                -0.729
REMARK SMILES O=C(O)c1ccc(CCCNS(=O)(=O)c2ccsc2C(=O)O)cc1
REMARK SMILES IDX 10 1 11 2 12 4 13 5 14 6 15 7 19 8 16 9 18 10 17 11 20 12
REMARK SMILES IDX 21 13 22 14 9 16 8 17 7 18 6 19 23 20 5 21 24 22 4 23 2 24
REMARK SMILES IDX 1 25 3 26
REMARK H PARENT 11 3 22 15 3 27
REMARK Flexibility Score: inf
ROOT
ATOM      1  C   UNL     1      23.064   5.620  14.669  1.00  0.00     0.011 C 
ENDROOT
BRANCH   1   2
ATOM      2  N   UNL     1      24.426   6.013  14.248  1.00  0.00    -0.211 NA
ATOM      3  H   UNL     1      24.548   6.031  13.228  1.00  0.00     0.141 HD
BRANCH   2   4
ATOM      4  S   UNL     1      25.771   5.534  15.170  1.00  0.00     0.242 S 
ATOM      5  O   UNL     1      26.901   6.386  14.853  1.00  0.00    -0.207 OA
ATOM      6  O   UNL     1      25.902   4.092  15.096  1.00  0.00    -0.207 OA
BRANCH   4   7
ATOM      7  C   UNL     1      25.242   5.921  16.811  1.00  0.00     0.107 A 
ATOM      8  C   UNL     1      25.182   7.194  17.334  1.00  0.00     0.132 A 
ATOM      9  C   UNL     1      24.825   4.936  17.753  1.00  0.00    -0.030 A 
ATOM     10  S   UNL     1      24.624   7.198  18.953  1.00  0.00    -0.136 S 
ATOM     11  C   UNL     1      24.462   5.493  18.960  1.00  0.00    -0.007 A 
BRANCH   8  12
ATOM     12  C   UNL     1      25.510   8.443  16.722  1.00  0.00     0.347 C 
ATOM     13  O   UNL     1      26.249   9.331  17.200  1.00  0.00    -0.245 OA
BRANCH  12  14
ATOM     14  O   UNL     1      24.925   8.621  15.495  1.00  0.00    -0.477 OA
ATOM     15  H   UNL     1      25.593   8.779  14.794  1.00  0.00     0.297 HD
ENDBRANCH  12  14
ENDBRANCH   8  12
ENDBRANCH   4   7
ENDBRANCH   2   4
ENDBRANCH   1   2
BRANCH   1  16
ATOM     16  C   UNL     1      22.340   4.909  13.530  1.00  0.00    -0.035 C 
BRANCH  16  17
ATOM     17  C   UNL     1      23.304   4.174  12.592  1.00  0.00    -0.027 C 
BRANCH  17  18
ATOM     18  C   UNL     1      23.053   4.530  11.148  1.00  0.00    -0.048 A 
ATOM     19  C   UNL     1      23.594   5.699  10.614  1.00  0.00    -0.058 A 
ATOM     20  C   UNL     1      22.282   3.688  10.346  1.00  0.00    -0.058 A 
ATOM     21  C   UNL     1      23.363   6.027   9.278  1.00  0.00    -0.047 A 
ATOM     22  C   UNL     1      22.051   4.017   9.010  1.00  0.00    -0.047 A 
ATOM     23  C   UNL     1      22.592   5.186   8.476  1.00  0.00     0.059 A 
BRANCH  23  24
ATOM     24  C   UNL     1      22.351   5.528   7.082  1.00  0.00     0.335 C 
ATOM     25  O   UNL     1      21.705   6.503   6.686  1.00  0.00    -0.246 OA
BRANCH  24  26
ATOM     26  O   UNL     1      22.925   4.642   6.224  1.00  0.00    -0.478 OA
ATOM     27  H   UNL     1      23.859   4.877   6.029  1.00  0.00     0.297 HD
ENDBRANCH  24  26
ENDBRANCH  23  24
ENDBRANCH  17  18
ENDBRANCH  16  17
ENDBRANCH   1  16
TORSDOF 10
ENDMDL
MODEL 15
REMARK VINA RESULT:    -7.023      2.005      2.708
REMARK INTER + INTRA:         -11.447
REMARK INTER:                 -10.824
REMARK INTRA:                  -0.623
REMARK UNBOUND:                -0.729
REMARK SMILES O=C(O)c1ccc(CCCNS(=O)(=O)c2ccsc2C(=O)O)cc1
REMARK SMILES IDX 10 1 11 2 12 4 13 5 14 6 15 7 19 8 16 9 18 10 17 11 20 12
REMARK SMILES IDX 21 13 22 14 9 16 8 17 7 18 6 19 23 20 5 21 24 22 4 23 2 24
REMARK SMILES IDX 1 25 3 26
REMARK H PARENT 11 3 22 15 3 27
REMARK Flexibility Score: inf
ROOT
ATOM      1  C   UNL     1      23.530   6.085  14.817  1.00  0.00     0.011 C 
ENDROOT
BRANCH   1   2
ATOM      2  N   UNL     1      23.153   5.600  16.163  1.00  0.00    -0.211 NA
ATOM      3  H   UNL     1      22.681   4.687  16.150  1.00  0.00     0.141 HD
BRANCH   2   4
ATOM      4  S   UNL     1      22.649   6.705  17.352  1.00  0.00     0.242 S 
ATOM      5  O   UNL     1      21.371   6.280  17.893  1.00  0.00    -0.207 OA
ATOM      6  O   UNL     1      22.813   8.052  16.842  1.00  0.00    -0.207 OA
BRANCH   4   7
ATOM      7  C   UNL     1      23.873   6.473  18.605  1.00  0.00     0.107 A 
ATOM      8  C   UNL     1      25.201   6.819  18.475  1.00  0.00     0.132 A 
ATOM      9  C   UNL     1      23.592   5.900  19.879  1.00  0.00    -0.030 A 
ATOM     10  S   UNL     1      26.101   6.454  19.886  1.00  0.00    -0.136 S 
ATOM     11  C   UNL     1      24.715   5.829  20.674  1.00  0.00    -0.007 A 
BRANCH   8  12
ATOM     12  C   UNL     1      25.879   7.414  17.368  1.00  0.00     0.347 C 
ATOM     13  O   UNL     1      26.007   8.639  17.148  1.00  0.00    -0.245 OA
BRANCH  12  14
ATOM     14  O   UNL     1      26.418   6.499  16.501  1.00  0.00    -0.477 OA
ATOM     15  H   UNL     1      26.726   6.922  15.671  1.00  0.00     0.297 HD
ENDBRANCH  12  14
ENDBRANCH   8  12
ENDBRANCH   4   7
ENDBRANCH   2   4
ENDBRANCH   1   2
BRANCH   1  16
ATOM     16  C   UNL     1      24.427   5.069  14.118  1.00  0.00    -0.035 C 
BRANCH  16  17
ATOM     17  C   UNL     1      24.855   5.527  12.721  1.00  0.00    -0.027 C 
BRANCH  17  18
ATOM     18  C   UNL     1      23.898   5.045  11.660  1.00  0.00    -0.048 A 
ATOM     19  C   UNL     1      23.702   5.799  10.503  1.00  0.00    -0.058 A 
ATOM     20  C   UNL     1      23.210   3.844  11.834  1.00  0.00    -0.058 A 
ATOM     21  C   UNL     1      22.817   5.352   9.521  1.00  0.00    -0.047 A 
ATOM     22  C   UNL     1      22.325   3.398  10.853  1.00  0.00    -0.047 A 
ATOM     23  C   UNL     1      22.129   4.152   9.696  1.00  0.00     0.059 A 
BRANCH  23  24
ATOM     24  C   UNL     1      21.206   3.686   8.672  1.00  0.00     0.335 C 
ATOM     25  O   UNL     1      20.210   2.983   8.872  1.00  0.00    -0.246 OA
BRANCH  24  26
ATOM     26  O   UNL     1      21.554   4.112   7.427  1.00  0.00    -0.478 OA
ATOM     27  H   UNL     1      20.848   4.658   7.019  1.00  0.00     0.297 HD
ENDBRANCH  24  26
ENDBRANCH  23  24
ENDBRANCH  17  18
ENDBRANCH  16  17
ENDBRANCH   1  16
TORSDOF 10
ENDMDL
MODEL 16
REMARK VINA RESULT:    -7.022      3.468      8.158
REMARK INTER + INTRA:         -11.445
REMARK INTER:                 -10.463
REMARK INTRA:                  -0.983
REMARK UNBOUND:                -0.729
REMARK SMILES O=C(O)c1ccc(CCCNS(=O)(=O)c2ccsc2C(=O)O)cc1
REMARK SMILES IDX 10 1 11 2 12 4 13 5 14 6 15 7 19 8 16 9 18 10 17 11 20 12
REMARK SMILES IDX 21 13 22 14 9 16 8 17 7 18 6 19 23 20 5 21 24 22 4 23 2 24
REMARK SMILES IDX 1 25 3 26
REMARK H PARENT 11 3 22 15 3 27
REMARK Flexibility Score: inf
ROOT
ATOM      1  C   UNL     1      22.252   8.957  15.092  1.00  0.00     0.011 C 
ENDROOT
BRANCH   1   2
ATOM      2  N   UNL     1      22.615   7.810  14.232  1.00  0.00    -0.211 NA
ATOM      3  H   UNL     1      23.139   8.081  13.390  1.00  0.00     0.141 HD
BRANCH   2   4
ATOM      4  S   UNL     1      21.550   6.494  14.078  1.00  0.00     0.242 S 
ATOM      5  O   UNL     1      20.182   6.967  14.168  1.00  0.00    -0.207 OA
ATOM      6  O   UNL     1      22.007   5.417  14.934  1.00  0.00    -0.207 OA
BRANCH   4   7
ATOM      7  C   UNL     1      21.840   5.986  12.410  1.00  0.00     0.107 A 
ATOM      8  C   UNL     1      23.045   5.518  11.933  1.00  0.00     0.132 A 
ATOM      9  C   UNL     1      20.839   6.016  11.396  1.00  0.00    -0.030 A 
ATOM     10  S   UNL     1      22.965   5.117  10.270  1.00  0.00    -0.136 S 
ATOM     11  C   UNL     1      21.316   5.570  10.183  1.00  0.00    -0.007 A 
BRANCH   8  12
ATOM     12  C   UNL     1      24.284   5.336  12.620  1.00  0.00     0.347 C 
ATOM     13  O   UNL     1      25.301   6.057  12.519  1.00  0.00    -0.245 OA
BRANCH  12  14
ATOM     14  O   UNL     1      24.292   4.249  13.455  1.00  0.00    -0.477 OA
ATOM     15  H   UNL     1      23.847   3.475  13.048  1.00  0.00     0.297 HD
ENDBRANCH  12  14
ENDBRANCH   8  12
ENDBRANCH   4   7
ENDBRANCH   2   4
ENDBRANCH   1   2
BRANCH   1  16
ATOM     16  C   UNL     1      23.443   9.380  15.944  1.00  0.00    -0.035 C 
BRANCH  16  17
ATOM     17  C   UNL     1      24.702   8.562  15.638  1.00  0.00    -0.027 C 
BRANCH  17  18
ATOM     18  C   UNL     1      25.077   7.667  16.792  1.00  0.00    -0.048 A 
ATOM     19  C   UNL     1      25.671   8.209  17.931  1.00  0.00    -0.058 A 
ATOM     20  C   UNL     1      24.830   6.296  16.721  1.00  0.00    -0.058 A 
ATOM     21  C   UNL     1      26.018   7.381  18.999  1.00  0.00    -0.047 A 
ATOM     22  C   UNL     1      25.176   5.467  17.788  1.00  0.00    -0.047 A 
ATOM     23  C   UNL     1      25.770   6.010  18.927  1.00  0.00     0.059 A 
BRANCH  23  24
ATOM     24  C   UNL     1      26.132   5.146  20.041  1.00  0.00     0.335 C 
ATOM     25  O   UNL     1      25.335   4.594  20.806  1.00  0.00    -0.246 OA
BRANCH  24  26
ATOM     26  O   UNL     1      27.478   4.995  20.165  1.00  0.00    -0.478 OA
ATOM     27  H   UNL     1      27.740   4.813  21.094  1.00  0.00     0.297 HD
ENDBRANCH  24  26
ENDBRANCH  23  24
ENDBRANCH  17  18
ENDBRANCH  16  17
ENDBRANCH   1  16
TORSDOF 10
ENDMDL
MODEL 17
REMARK VINA RESULT:    -6.905      3.271      8.194
REMARK INTER + INTRA:         -11.267
REMARK INTER:                  -9.959
REMARK INTRA:                  -1.307
REMARK UNBOUND:                -0.729
REMARK SMILES O=C(O)c1ccc(CCCNS(=O)(=O)c2ccsc2C(=O)O)cc1
REMARK SMILES IDX 10 1 11 2 12 4 13 5 14 6 15 7 19 8 16 9 18 10 17 11 20 12
REMARK SMILES IDX 21 13 22 14 9 16 8 17 7 18 6 19 23 20 5 21 24 22 4 23 2 24
REMARK SMILES IDX 1 25 3 26
REMARK H PARENT 11 3 22 15 3 27
REMARK Flexibility Score: inf
ROOT
ATOM      1  C   UNL     1      25.373   5.023  13.399  1.00  0.00     0.011 C 
ENDROOT
BRANCH   1   2
ATOM      2  N   UNL     1      24.016   4.656  13.858  1.00  0.00    -0.211 NA
ATOM      3  H   UNL     1      23.994   3.793  14.417  1.00  0.00     0.141 HD
BRANCH   2   4
ATOM      4  S   UNL     1      22.672   4.955  12.862  1.00  0.00     0.242 S 
ATOM      5  O   UNL     1      22.226   3.709  12.268  1.00  0.00    -0.207 OA
ATOM      6  O   UNL     1      22.956   6.102  12.022  1.00  0.00    -0.207 OA
BRANCH   4   7
ATOM      7  C   UNL     1      21.454   5.464  14.037  1.00  0.00     0.107 A 
ATOM      8  C   UNL     1      20.192   5.911  13.712  1.00  0.00     0.132 A 
ATOM      9  C   UNL     1      21.673   5.456  15.445  1.00  0.00    -0.030 A 
ATOM     10  S   UNL     1      19.278   6.319  15.102  1.00  0.00    -0.136 S 
ATOM     11  C   UNL     1      20.570   5.897  16.143  1.00  0.00    -0.007 A 
BRANCH   8  12
ATOM     12  C   UNL     1      19.588   6.068  12.427  1.00  0.00     0.347 C 
ATOM     13  O   UNL     1      18.716   5.327  11.923  1.00  0.00    -0.245 OA
BRANCH  12  14
ATOM     14  O   UNL     1      20.054   7.154  11.732  1.00  0.00    -0.477 OA
ATOM     15  H   UNL     1      20.078   6.984  10.767  1.00  0.00     0.297 HD
ENDBRANCH  12  14
ENDBRANCH   8  12
ENDBRANCH   4   7
ENDBRANCH   2   4
ENDBRANCH   1   2
BRANCH   1  16
ATOM     16  C   UNL     1      26.132   5.745  14.507  1.00  0.00    -0.035 C 
BRANCH  16  17
ATOM     17  C   UNL     1      25.255   6.753  15.257  1.00  0.00    -0.027 C 
BRANCH  17  18
ATOM     18  C   UNL     1      25.336   6.558  16.750  1.00  0.00    -0.048 A 
ATOM     19  C   UNL     1      24.973   5.336  17.315  1.00  0.00    -0.058 A 
ATOM     20  C   UNL     1      25.776   7.600  17.567  1.00  0.00    -0.058 A 
ATOM     21  C   UNL     1      25.049   5.156  18.696  1.00  0.00    -0.047 A 
ATOM     22  C   UNL     1      25.852   7.420  18.948  1.00  0.00    -0.047 A 
ATOM     23  C   UNL     1      25.488   6.198  19.512  1.00  0.00     0.059 A 
BRANCH  23  24
ATOM     24  C   UNL     1      25.568   6.010  20.953  1.00  0.00     0.335 C 
ATOM     25  O   UNL     1      26.228   6.706  21.730  1.00  0.00    -0.246 OA
BRANCH  24  26
ATOM     26  O   UNL     1      24.820   4.956  21.381  1.00  0.00    -0.478 OA
ATOM     27  H   UNL     1      25.281   4.101  21.241  1.00  0.00     0.297 HD
ENDBRANCH  24  26
ENDBRANCH  23  24
ENDBRANCH  17  18
ENDBRANCH  16  17
ENDBRANCH   1  16
TORSDOF 10
ENDMDL
MODEL 18
REMARK VINA RESULT:    -6.855      3.287      9.706
REMARK INTER + INTRA:         -11.191
REMARK INTER:                 -10.489
REMARK INTRA:                  -0.702
REMARK UNBOUND:                -0.729
REMARK SMILES O=C(O)c1ccc(CCCNS(=O)(=O)c2ccsc2C(=O)O)cc1
REMARK SMILES IDX 10 1 11 2 12 4 13 5 14 6 15 7 19 8 16 9 18 10 17 11 20 12
REMARK SMILES IDX 21 13 22 14 9 16 8 17 7 18 6 19 23 20 5 21 24 22 4 23 2 24
REMARK SMILES IDX 1 25 3 26
REMARK H PARENT 11 3 22 15 3 27
REMARK Flexibility Score: inf
ROOT
ATOM      1  C   UNL     1      24.842   5.422  12.689  1.00  0.00     0.011 C 
ENDROOT
BRANCH   1   2
ATOM      2  N   UNL     1      23.634   6.069  12.132  1.00  0.00    -0.211 NA
ATOM      3  H   UNL     1      23.243   6.797  12.744  1.00  0.00     0.141 HD
BRANCH   2   4
ATOM      4  S   UNL     1      22.523   5.157  11.225  1.00  0.00     0.242 S 
ATOM      5  O   UNL     1      21.174   5.489  11.640  1.00  0.00    -0.207 OA
ATOM      6  O   UNL     1      22.959   3.775  11.200  1.00  0.00    -0.207 OA
BRANCH   4   7
ATOM      7  C   UNL     1      22.766   5.804   9.598  1.00  0.00     0.107 A 
ATOM      8  C   UNL     1      22.067   5.399   8.482  1.00  0.00     0.132 A 
ATOM      9  C   UNL     1      23.720   6.818   9.292  1.00  0.00    -0.030 A 
ATOM     10  S   UNL     1      22.562   6.239   7.074  1.00  0.00    -0.136 S 
ATOM     11  C   UNL     1      23.714   7.148   7.955  1.00  0.00    -0.007 A 
BRANCH   8  12
ATOM     12  C   UNL     1      21.037   4.416   8.365  1.00  0.00     0.347 C 
ATOM     13  O   UNL     1      19.806   4.635   8.315  1.00  0.00    -0.245 OA
BRANCH  12  14
ATOM     14  O   UNL     1      21.511   3.131   8.305  1.00  0.00    -0.477 OA
ATOM     15  H   UNL     1      22.392   3.050   8.728  1.00  0.00     0.297 HD
ENDBRANCH  12  14
ENDBRANCH   8  12
ENDBRANCH   4   7
ENDBRANCH   2   4
ENDBRANCH   1   2
BRANCH   1  16
ATOM     16  C   UNL     1      24.758   5.359  14.210  1.00  0.00    -0.035 C 
BRANCH  16  17
ATOM     17  C   UNL     1      25.488   6.525  14.885  1.00  0.00    -0.027 C 
BRANCH  17  18
ATOM     18  C   UNL     1      25.357   6.469  16.386  1.00  0.00    -0.048 A 
ATOM     19  C   UNL     1      24.786   5.351  16.995  1.00  0.00    -0.058 A 
ATOM     20  C   UNL     1      25.807   7.534  17.167  1.00  0.00    -0.058 A 
ATOM     21  C   UNL     1      24.665   5.299  18.384  1.00  0.00    -0.047 A 
ATOM     22  C   UNL     1      25.686   7.482  18.555  1.00  0.00    -0.047 A 
ATOM     23  C   UNL     1      25.115   6.365  19.163  1.00  0.00     0.059 A 
BRANCH  23  24
ATOM     24  C   UNL     1      24.989   6.310  20.612  1.00  0.00     0.335 C 
ATOM     25  O   UNL     1      25.930   6.294  21.412  1.00  0.00    -0.246 OA
BRANCH  24  26
ATOM     26  O   UNL     1      23.691   6.278  21.020  1.00  0.00    -0.478 OA
ATOM     27  H   UNL     1      23.092   5.978  20.302  1.00  0.00     0.297 HD
ENDBRANCH  24  26
ENDBRANCH  23  24
ENDBRANCH  17  18
ENDBRANCH  16  17
ENDBRANCH   1  16
TORSDOF 10
ENDMDL
MODEL 19
REMARK VINA RESULT:    -6.848      3.076      4.072
REMARK INTER + INTRA:         -11.180
REMARK INTER:                 -10.542
REMARK INTRA:                  -0.638
REMARK UNBOUND:                -0.729
REMARK SMILES O=C(O)c1ccc(CCCNS(=O)(=O)c2ccsc2C(=O)O)cc1
REMARK SMILES IDX 10 1 11 2 12 4 13 5 14 6 15 7 19 8 16 9 18 10 17 11 20 12
REMARK SMILES IDX 21 13 22 14 9 16 8 17 7 18 6 19 23 20 5 21 24 22 4 23 2 24
REMARK SMILES IDX 1 25 3 26
REMARK H PARENT 11 3 22 15 3 27
REMARK Flexibility Score: inf
ROOT
ATOM      1  C   UNL     1      23.151   5.335  14.196  1.00  0.00     0.011 C 
ENDROOT
BRANCH   1   2
ATOM      2  N   UNL     1      23.472   6.774  14.084  1.00  0.00    -0.211 NA
ATOM      3  H   UNL     1      24.380   6.956  13.638  1.00  0.00     0.141 HD
BRANCH   2   4
ATOM      4  S   UNL     1      22.995   7.849  15.311  1.00  0.00     0.242 S 
ATOM      5  O   UNL     1      21.614   7.590  15.669  1.00  0.00    -0.207 OA
ATOM      6  O   UNL     1      23.417   9.189  14.952  1.00  0.00    -0.207 OA
BRANCH   4   7
ATOM      7  C   UNL     1      24.012   7.332  16.661  1.00  0.00     0.107 A 
ATOM      8  C   UNL     1      25.350   7.020  16.559  1.00  0.00     0.132 A 
ATOM      9  C   UNL     1      23.531   7.189  17.995  1.00  0.00    -0.030 A 
ATOM     10  S   UNL     1      26.020   6.559  18.066  1.00  0.00    -0.136 S 
ATOM     11  C   UNL     1      24.519   6.775  18.861  1.00  0.00    -0.007 A 
BRANCH   8  12
ATOM     12  C   UNL     1      26.199   7.035  15.410  1.00  0.00     0.347 C 
ATOM     13  O   UNL     1      26.969   6.119  15.045  1.00  0.00    -0.245 OA
BRANCH  12  14
ATOM     14  O   UNL     1      26.114   8.193  14.681  1.00  0.00    -0.477 OA
ATOM     15  H   UNL     1      25.643   8.053  13.832  1.00  0.00     0.297 HD
ENDBRANCH  12  14
ENDBRANCH   8  12
ENDBRANCH   4   7
ENDBRANCH   2   4
ENDBRANCH   1   2
BRANCH   1  16
ATOM     16  C   UNL     1      23.963   4.529  13.188  1.00  0.00    -0.035 C 
BRANCH  16  17
ATOM     17  C   UNL     1      23.079   3.807  12.167  1.00  0.00    -0.027 C 
BRANCH  17  18
ATOM     18  C   UNL     1      23.035   4.542  10.851  1.00  0.00    -0.048 A 
ATOM     19  C   UNL     1      23.739   5.736  10.695  1.00  0.00    -0.058 A 
ATOM     20  C   UNL     1      22.292   4.027   9.788  1.00  0.00    -0.058 A 
ATOM     21  C   UNL     1      23.699   6.415   9.477  1.00  0.00    -0.047 A 
ATOM     22  C   UNL     1      22.251   4.707   8.571  1.00  0.00    -0.047 A 
ATOM     23  C   UNL     1      22.954   5.901   8.416  1.00  0.00     0.059 A 
BRANCH  23  24
ATOM     24  C   UNL     1      22.913   6.610   7.146  1.00  0.00     0.335 C 
ATOM     25  O   UNL     1      23.304   6.162   6.063  1.00  0.00    -0.246 OA
BRANCH  24  26
ATOM     26  O   UNL     1      22.383   7.858   7.265  1.00  0.00    -0.478 OA
ATOM     27  H   UNL     1      21.627   7.874   7.891  1.00  0.00     0.297 HD
ENDBRANCH  24  26
ENDBRANCH  23  24
ENDBRANCH  17  18
ENDBRANCH  16  17
ENDBRANCH   1  16
TORSDOF 10
ENDMDL
MODEL 20
REMARK VINA RESULT:    -6.791      2.413      3.143
REMARK INTER + INTRA:         -11.092
REMARK INTER:                 -10.364
REMARK INTRA:                  -0.729
REMARK UNBOUND:                -0.729
REMARK SMILES O=C(O)c1ccc(CCCNS(=O)(=O)c2ccsc2C(=O)O)cc1
REMARK SMILES IDX 10 1 11 2 12 4 13 5 14 6 15 7 19 8 16 9 18 10 17 11 20 12
REMARK SMILES IDX 21 13 22 14 9 16 8 17 7 18 6 19 23 20 5 21 24 22 4 23 2 24
REMARK SMILES IDX 1 25 3 26
REMARK H PARENT 11 3 22 15 3 27
REMARK Flexibility Score: inf
ROOT
ATOM      1  C   UNL     1      22.418   5.782  14.419  1.00  0.00     0.011 C 
ENDROOT
BRANCH   1   2
ATOM      2  N   UNL     1      23.111   5.245  15.610  1.00  0.00    -0.211 NA
ATOM      3  H   UNL     1      22.468   4.908  16.338  1.00  0.00     0.141 HD
BRANCH   2   4
ATOM      4  S   UNL     1      24.561   5.955  16.141  1.00  0.00     0.242 S 
ATOM      5  O   UNL     1      24.544   7.373  15.833  1.00  0.00    -0.207 OA
ATOM      6  O   UNL     1      25.673   5.130  15.713  1.00  0.00    -0.207 OA
BRANCH   4   7
ATOM      7  C   UNL     1      24.431   5.778  17.894  1.00  0.00     0.107 A 
ATOM      8  C   UNL     1      23.401   6.283  18.658  1.00  0.00     0.132 A 
ATOM      9  C   UNL     1      25.394   5.088  18.686  1.00  0.00    -0.030 A 
ATOM     10  S   UNL     1      23.598   5.924  20.320  1.00  0.00    -0.136 S 
ATOM     11  C   UNL     1      25.064   5.091  20.023  1.00  0.00    -0.007 A 
BRANCH   8  12
ATOM     12  C   UNL     1      22.252   7.029  18.252  1.00  0.00     0.347 C 
ATOM     13  O   UNL     1      21.069   6.622  18.243  1.00  0.00    -0.245 OA
BRANCH  12  14
ATOM     14  O   UNL     1      22.544   8.305  17.843  1.00  0.00    -0.477 OA
ATOM     15  H   UNL     1      22.083   8.533  17.009  1.00  0.00     0.297 HD
ENDBRANCH  12  14
ENDBRANCH   8  12
ENDBRANCH   4   7
ENDBRANCH   2   4
ENDBRANCH   1   2
BRANCH   1  16
ATOM     16  C   UNL     1      22.170   4.672  13.404  1.00  0.00    -0.035 C 
BRANCH  16  17
ATOM     17  C   UNL     1      23.399   4.387  12.534  1.00  0.00    -0.027 C 
BRANCH  17  18
ATOM     18  C   UNL     1      23.150   4.732  11.088  1.00  0.00    -0.048 A 
ATOM     19  C   UNL     1      22.386   3.880  10.289  1.00  0.00    -0.058 A 
ATOM     20  C   UNL     1      23.681   5.903  10.548  1.00  0.00    -0.058 A 
ATOM     21  C   UNL     1      22.155   4.200   8.951  1.00  0.00    -0.047 A 
ATOM     22  C   UNL     1      23.450   6.223   9.210  1.00  0.00    -0.047 A 
ATOM     23  C   UNL     1      22.687   5.371   8.412  1.00  0.00     0.059 A 
BRANCH  23  24
ATOM     24  C   UNL     1      22.446   5.704   7.016  1.00  0.00     0.335 C 
ATOM     25  O   UNL     1      21.912   6.741   6.610  1.00  0.00    -0.246 OA
BRANCH  24  26
ATOM     26  O   UNL     1      22.879   4.732   6.168  1.00  0.00    -0.478 OA
ATOM     27  H   UNL     1      23.472   5.093   5.473  1.00  0.00     0.297 HD
ENDBRANCH  24  26
ENDBRANCH  23  24
ENDBRANCH  17  18
ENDBRANCH  16  17
ENDBRANCH   1  16
TORSDOF 10
ENDMDL
