MODEL 1
REMARK VINA RESULT:    -7.748      0.000      0.000
REMARK INTER + INTRA:         -12.306
REMARK INTER:                 -11.562
REMARK INTRA:                  -0.744
REMARK UNBOUND:                -0.934
REMARK SMILES O=S(=O)(NCCCc1ccc(C(:O):O)cc1)c1ccsc1C(:O):O
REMARK SMILES IDX 5 1 6 2 7 3 8 4 9 5 10 6 11 7 16 8 15 9 12 10 13 11 14 12
REMARK SMILES IDX 4 13 2 14 1 15 3 16 17 17 18 18 21 19 19 20 20 21 22 22
REMARK SMILES IDX 23 23 24 24
REMARK H PARENT
REMARK Flexibility Score: inf
ROOT
ATOM      1  C   UNL     1      25.147   6.830  14.840  1.00  0.00     0.011 C 
ENDROOT
BRANCH   1   2
ATOM      2  C   UNL     1      25.686   5.598  14.000  1.00  0.00    -0.035 C 
BRANCH   2   3
ATOM      3  C   UNL     1      24.690   4.406  13.823  1.00  0.00    -0.027 C 
BRANCH   3   4
ATOM      4  C   UNL     1      23.965   4.524  12.466  1.00  0.00    -0.048 A 
ATOM      5  C   UNL     1      22.987   3.635  11.945  1.00  0.00    -0.058 A 
ATOM      6  C   UNL     1      22.368   3.850  10.679  1.00  0.00    -0.047 A 
ATOM      7  C   UNL     1      22.777   4.990   9.947  1.00  0.00     0.064 A 
ATOM      8  C   UNL     1      24.321   5.591  11.674  1.00  0.00    -0.058 A 
ATOM      9  C   UNL     1      23.729   5.833  10.457  1.00  0.00    -0.047 A 
BRANCH   7  10
ATOM     10  C   UNL     1      22.262   5.390   8.527  1.00  0.00     0.386 C 
ATOM     11  O   UNL     1      22.760   4.753   7.554  1.00  0.00    -0.242 OA
ATOM     12  O   UNL     1      21.347   6.284   8.449  1.00  0.00    -0.242 OA
ENDBRANCH   7  10
ENDBRANCH   3   4
ENDBRANCH   2   3
ENDBRANCH   1   2
BRANCH   1  13
ATOM     13  N   UNL     1      24.167   6.418  15.886  1.00  0.00    -0.211 NA
BRANCH  13  14
ATOM     14  S   UNL     1      24.829   5.946  17.438  1.00  0.00     0.242 S 
ATOM     15  O   UNL     1      25.989   6.890  17.676  1.00  0.00    -0.207 OA
ATOM     16  O   UNL     1      25.236   4.500  17.488  1.00  0.00    -0.207 OA
BRANCH  14  17
ATOM     17  C   UNL     1      23.542   6.168  18.588  1.00  0.00     0.108 A 
ATOM     18  C   UNL     1      22.320   6.597  18.185  1.00  0.00    -0.030 A 
ATOM     19  C   UNL     1      23.628   5.899  19.975  1.00  0.00     0.137 A 
ATOM     20  C   UNL     1      21.373   6.690  19.153  1.00  0.00    -0.007 A 
ATOM     21  S   UNL     1      22.077   6.218  20.662  1.00  0.00    -0.135 S 
BRANCH  19  22
ATOM     22  C   UNL     1      24.772   5.399  20.855  1.00  0.00     0.397 C 
ATOM     23  O   UNL     1      24.807   4.135  20.963  1.00  0.00    -0.240 OA
ATOM     24  O   UNL     1      25.564   6.204  21.404  1.00  0.00    -0.240 OA
ENDBRANCH  19  22
ENDBRANCH  14  17
ENDBRANCH  13  14
ENDBRANCH   1  13
TORSDOF 8
ENDMDL
MODEL 2
REMARK VINA RESULT:    -7.368      2.468      3.301
REMARK INTER + INTRA:         -11.748
REMARK INTER:                 -11.295
REMARK INTRA:                  -0.453
REMARK UNBOUND:                -0.934
REMARK SMILES O=S(=O)(NCCCc1ccc(C(:O):O)cc1)c1ccsc1C(:O):O
REMARK SMILES IDX 5 1 6 2 7 3 8 4 9 5 10 6 11 7 16 8 15 9 12 10 13 11 14 12
REMARK SMILES IDX 4 13 2 14 1 15 3 16 17 17 18 18 21 19 19 20 20 21 22 22
REMARK SMILES IDX 23 23 24 24
REMARK H PARENT
REMARK Flexibility Score: inf
ROOT
ATOM      1  C   UNL     1      23.984   5.907  13.184  1.00  0.00     0.011 C 
ENDROOT
BRANCH   1   2
ATOM      2  C   UNL     1      24.036   4.952  11.919  1.00  0.00    -0.035 C 
BRANCH   2   3
ATOM      3  C   UNL     1      23.188   3.644  12.016  1.00  0.00    -0.027 C 
BRANCH   3   4
ATOM      4  C   UNL     1      22.068   3.663  10.955  1.00  0.00    -0.048 A 
ATOM      5  C   UNL     1      22.232   3.775   9.549  1.00  0.00    -0.058 A 
ATOM      6  C   UNL     1      21.121   3.767   8.655  1.00  0.00    -0.047 A 
ATOM      7  C   UNL     1      19.833   3.652   9.228  1.00  0.00     0.064 A 
ATOM      8  C   UNL     1      20.778   3.582  11.426  1.00  0.00    -0.058 A 
ATOM      9  C   UNL     1      19.689   3.555  10.588  1.00  0.00    -0.047 A 
BRANCH   7  10
ATOM     10  C   UNL     1      18.483   3.665   8.441  1.00  0.00     0.386 C 
ATOM     11  O   UNL     1      17.993   4.806   8.195  1.00  0.00    -0.242 OA
ATOM     12  O   UNL     1      18.000   2.542   8.058  1.00  0.00    -0.242 OA
ENDBRANCH   7  10
ENDBRANCH   3   4
ENDBRANCH   2   3
ENDBRANCH   1   2
BRANCH   1  13
ATOM     13  N   UNL     1      25.332   6.422  13.562  1.00  0.00    -0.211 NA
BRANCH  13  14
ATOM     14  S   UNL     1      25.941   5.943  15.134  1.00  0.00     0.242 S 
ATOM     15  O   UNL     1      27.446   6.086  15.034  1.00  0.00    -0.207 OA
ATOM     16  O   UNL     1      25.513   4.560  15.533  1.00  0.00    -0.207 OA
BRANCH  14  17
ATOM     17  C   UNL     1      25.240   7.058  16.271  1.00  0.00     0.108 A 
ATOM     18  C   UNL     1      24.648   8.202  15.845  1.00  0.00    -0.030 A 
ATOM     19  C   UNL     1      25.185   6.871  17.673  1.00  0.00     0.137 A 
ATOM     20  C   UNL     1      24.089   8.977  16.809  1.00  0.00    -0.007 A 
ATOM     21  S   UNL     1      24.339   8.217  18.343  1.00  0.00    -0.135 S 
BRANCH  19  22
ATOM     22  C   UNL     1      25.697   5.753  18.580  1.00  0.00     0.397 C 
ATOM     23  O   UNL     1      24.848   4.829  18.767  1.00  0.00    -0.240 OA
ATOM     24  O   UNL     1      26.849   5.801  19.076  1.00  0.00    -0.240 OA
ENDBRANCH  19  22
ENDBRANCH  14  17
ENDBRANCH  13  14
ENDBRANCH   1  13
TORSDOF 8
ENDMDL
MODEL 3
REMARK VINA RESULT:    -7.333      1.795      2.337
REMARK INTER + INTRA:         -11.697
REMARK INTER:                 -10.806
REMARK INTRA:                  -0.890
REMARK UNBOUND:                -0.934
REMARK SMILES O=S(=O)(NCCCc1ccc(C(:O):O)cc1)c1ccsc1C(:O):O
REMARK SMILES IDX 5 1 6 2 7 3 8 4 9 5 10 6 11 7 16 8 15 9 12 10 13 11 14 12
REMARK SMILES IDX 4 13 2 14 1 15 3 16 17 17 18 18 21 19 19 20 20 21 22 22
REMARK SMILES IDX 23 23 24 24
REMARK H PARENT
REMARK Flexibility Score: inf
ROOT
ATOM      1  C   UNL     1      24.990   5.193  15.708  1.00  0.00     0.011 C 
ENDROOT
BRANCH   1   2
ATOM      2  C   UNL     1      25.348   4.585  14.287  1.00  0.00    -0.035 C 
BRANCH   2   3
ATOM      3  C   UNL     1      25.276   5.578  13.083  1.00  0.00    -0.027 C 
BRANCH   3   4
ATOM      4  C   UNL     1      24.184   5.124  12.091  1.00  0.00    -0.048 A 
ATOM      5  C   UNL     1      23.796   5.782  10.894  1.00  0.00    -0.058 A 
ATOM      6  C   UNL     1      22.780   5.262  10.041  1.00  0.00    -0.047 A 
ATOM      7  C   UNL     1      22.157   4.057  10.440  1.00  0.00     0.064 A 
ATOM      8  C   UNL     1      23.506   3.972  12.415  1.00  0.00    -0.058 A 
ATOM      9  C   UNL     1      22.534   3.437  11.604  1.00  0.00    -0.047 A 
BRANCH   7  10
ATOM     10  C   UNL     1      20.996   3.338   9.680  1.00  0.00     0.386 C 
ATOM     11  O   UNL     1      20.062   2.875  10.398  1.00  0.00    -0.242 OA
ATOM     12  O   UNL     1      21.041   3.312   8.400  1.00  0.00    -0.242 OA
ENDBRANCH   7  10
ENDBRANCH   3   4
ENDBRANCH   2   3
ENDBRANCH   1   2
BRANCH   1  13
ATOM     13  N   UNL     1      25.956   6.247  16.132  1.00  0.00    -0.211 NA
BRANCH  13  14
ATOM     14  S   UNL     1      25.292   7.839  16.443  1.00  0.00     0.242 S 
ATOM     15  O   UNL     1      25.180   8.492  15.082  1.00  0.00    -0.207 OA
ATOM     16  O   UNL     1      26.117   8.641  17.408  1.00  0.00    -0.207 OA
BRANCH  14  17
ATOM     17  C   UNL     1      23.740   7.566  17.181  1.00  0.00     0.108 A 
ATOM     18  C   UNL     1      22.601   7.987  16.576  1.00  0.00    -0.030 A 
ATOM     19  C   UNL     1      23.522   6.881  18.400  1.00  0.00     0.137 A 
ATOM     20  C   UNL     1      21.441   7.680  17.211  1.00  0.00    -0.007 A 
ATOM     21  S   UNL     1      21.818   6.821  18.665  1.00  0.00    -0.135 S 
BRANCH  19  22
ATOM     22  C   UNL     1      24.480   6.235  19.401  1.00  0.00     0.397 C 
ATOM     23  O   UNL     1      24.592   4.980  19.250  1.00  0.00    -0.240 OA
ATOM     24  O   UNL     1      25.064   6.924  20.273  1.00  0.00    -0.240 OA
ENDBRANCH  19  22
ENDBRANCH  14  17
ENDBRANCH  13  14
ENDBRANCH   1  13
TORSDOF 8
ENDMDL
MODEL 4
REMARK VINA RESULT:    -7.178      2.211      2.809
REMARK INTER + INTRA:         -11.469
REMARK INTER:                 -11.018
REMARK INTRA:                  -0.451
REMARK UNBOUND:                -0.934
REMARK SMILES O=S(=O)(NCCCc1ccc(C(:O):O)cc1)c1ccsc1C(:O):O
REMARK SMILES IDX 5 1 6 2 7 3 8 4 9 5 10 6 11 7 16 8 15 9 12 10 13 11 14 12
REMARK SMILES IDX 4 13 2 14 1 15 3 16 17 17 18 18 21 19 19 20 20 21 22 22
REMARK SMILES IDX 23 23 24 24
REMARK H PARENT
REMARK Flexibility Score: inf
ROOT
ATOM      1  C   UNL     1      23.930   5.698  13.427  1.00  0.00     0.011 C 
ENDROOT
BRANCH   1   2
ATOM      2  C   UNL     1      23.916   4.504  12.383  1.00  0.00    -0.035 C 
BRANCH   2   3
ATOM      3  C   UNL     1      22.507   4.053  11.880  1.00  0.00    -0.027 C 
BRANCH   3   4
ATOM      4  C   UNL     1      22.359   4.369  10.377  1.00  0.00    -0.048 A 
ATOM      5  C   UNL     1      21.572   3.659   9.432  1.00  0.00    -0.058 A 
ATOM      6  C   UNL     1      21.497   4.051   8.063  1.00  0.00    -0.047 A 
ATOM      7  C   UNL     1      22.253   5.181   7.674  1.00  0.00     0.064 A 
ATOM      8  C   UNL     1      23.082   5.440   9.904  1.00  0.00    -0.058 A 
ATOM      9  C   UNL     1      23.017   5.852   8.594  1.00  0.00    -0.047 A 
BRANCH   7  10
ATOM     10  C   UNL     1      22.348   5.755   6.223  1.00  0.00     0.386 C 
ATOM     11  O   UNL     1      23.491   6.161   5.859  1.00  0.00    -0.242 OA
ATOM     12  O   UNL     1      21.295   5.728   5.496  1.00  0.00    -0.242 OA
ENDBRANCH   7  10
ENDBRANCH   3   4
ENDBRANCH   2   3
ENDBRANCH   1   2
BRANCH   1  13
ATOM     13  N   UNL     1      25.303   6.235  13.654  1.00  0.00    -0.211 NA
BRANCH  13  14
ATOM     14  S   UNL     1      26.037   5.877  15.205  1.00  0.00     0.242 S 
ATOM     15  O   UNL     1      27.525   6.056  14.989  1.00  0.00    -0.207 OA
ATOM     16  O   UNL     1      25.684   4.511  15.720  1.00  0.00    -0.207 OA
BRANCH  14  17
ATOM     17  C   UNL     1      25.380   7.043  16.318  1.00  0.00     0.108 A 
ATOM     18  C   UNL     1      24.850   8.208  15.869  1.00  0.00    -0.030 A 
ATOM     19  C   UNL     1      25.301   6.880  17.722  1.00  0.00     0.137 A 
ATOM     20  C   UNL     1      24.320   9.025  16.814  1.00  0.00    -0.007 A 
ATOM     21  S   UNL     1      24.516   8.277  18.362  1.00  0.00    -0.135 S 
BRANCH  19  22
ATOM     22  C   UNL     1      25.746   5.752  18.652  1.00  0.00     0.397 C 
ATOM     23  O   UNL     1      24.830   4.908  18.891  1.00  0.00    -0.240 OA
ATOM     24  O   UNL     1      26.913   5.720  19.114  1.00  0.00    -0.240 OA
ENDBRANCH  19  22
ENDBRANCH  14  17
ENDBRANCH  13  14
ENDBRANCH   1  13
TORSDOF 8
ENDMDL
MODEL 5
REMARK VINA RESULT:    -7.164      3.338      8.642
REMARK INTER + INTRA:         -11.448
REMARK INTER:                 -10.575
REMARK INTRA:                  -0.873
REMARK UNBOUND:                -0.934
REMARK SMILES O=S(=O)(NCCCc1ccc(C(:O):O)cc1)c1ccsc1C(:O):O
REMARK SMILES IDX 5 1 6 2 7 3 8 4 9 5 10 6 11 7 16 8 15 9 12 10 13 11 14 12
REMARK SMILES IDX 4 13 2 14 1 15 3 16 17 17 18 18 21 19 19 20 20 21 22 22
REMARK SMILES IDX 23 23 24 24
REMARK H PARENT
REMARK Flexibility Score: inf
ROOT
ATOM      1  C   UNL     1      22.329   7.114  13.859  1.00  0.00     0.011 C 
ENDROOT
BRANCH   1   2
ATOM      2  C   UNL     1      22.607   7.889  15.214  1.00  0.00    -0.035 C 
BRANCH   2   3
ATOM      3  C   UNL     1      24.082   8.351  15.446  1.00  0.00    -0.027 C 
BRANCH   3   4
ATOM      4  C   UNL     1      24.681   7.609  16.658  1.00  0.00    -0.048 A 
ATOM      5  C   UNL     1      24.764   6.203  16.838  1.00  0.00    -0.058 A 
ATOM      6  C   UNL     1      25.355   5.623  17.999  1.00  0.00    -0.047 A 
ATOM      7  C   UNL     1      25.853   6.511  18.981  1.00  0.00     0.064 A 
ATOM      8  C   UNL     1      25.167   8.396  17.677  1.00  0.00    -0.058 A 
ATOM      9  C   UNL     1      25.757   7.866  18.799  1.00  0.00    -0.047 A 
BRANCH   7  10
ATOM     10  C   UNL     1      26.498   6.091  20.341  1.00  0.00     0.386 C 
ATOM     11  O   UNL     1      27.591   5.456  20.266  1.00  0.00    -0.242 OA
ATOM     12  O   UNL     1      25.916   6.458  21.422  1.00  0.00    -0.242 OA
ENDBRANCH   7  10
ENDBRANCH   3   4
ENDBRANCH   2   3
ENDBRANCH   1   2
BRANCH   1  13
ATOM     13  N   UNL     1      22.797   5.699  13.910  1.00  0.00    -0.211 NA
BRANCH  13  14
ATOM     14  S   UNL     1      23.939   5.207  12.674  1.00  0.00     0.242 S 
ATOM     15  O   UNL     1      24.150   3.724  12.899  1.00  0.00    -0.207 OA
ATOM     16  O   UNL     1      25.221   5.989  12.714  1.00  0.00    -0.207 OA
BRANCH  14  17
ATOM     17  C   UNL     1      23.165   5.547  11.153  1.00  0.00     0.108 A 
ATOM     18  C   UNL     1      23.796   6.280  10.203  1.00  0.00    -0.030 A 
ATOM     19  C   UNL     1      21.885   5.083  10.765  1.00  0.00     0.137 A 
ATOM     20  C   UNL     1      23.125   6.444   9.035  1.00  0.00    -0.007 A 
ATOM     21  S   UNL     1      21.601   5.635   9.154  1.00  0.00    -0.135 S 
BRANCH  19  22
ATOM     22  C   UNL     1      20.838   4.235  11.485  1.00  0.00     0.397 C 
ATOM     23  O   UNL     1      21.026   2.987  11.353  1.00  0.00    -0.240 OA
ATOM     24  O   UNL     1      19.898   4.772  12.121  1.00  0.00    -0.240 OA
ENDBRANCH  19  22
ENDBRANCH  14  17
ENDBRANCH  13  14
ENDBRANCH   1  13
TORSDOF 8
ENDMDL
MODEL 6
REMARK VINA RESULT:    -7.158      3.252      9.037
REMARK INTER + INTRA:         -11.440
REMARK INTER:                 -10.669
REMARK INTRA:                  -0.770
REMARK UNBOUND:                -0.934
REMARK SMILES O=S(=O)(NCCCc1ccc(C(:O):O)cc1)c1ccsc1C(:O):O
REMARK SMILES IDX 5 1 6 2 7 3 8 4 9 5 10 6 11 7 16 8 15 9 12 10 13 11 14 12
REMARK SMILES IDX 4 13 2 14 1 15 3 16 17 17 18 18 21 19 19 20 20 21 22 22
REMARK SMILES IDX 23 23 24 24
REMARK H PARENT
REMARK Flexibility Score: inf
ROOT
ATOM      1  C   UNL     1      21.892   6.610  14.069  1.00  0.00     0.011 C 
ENDROOT
BRANCH   1   2
ATOM      2  C   UNL     1      22.342   7.381  15.381  1.00  0.00    -0.035 C 
BRANCH   2   3
ATOM      3  C   UNL     1      23.847   7.795  15.446  1.00  0.00    -0.027 C 
BRANCH   3   4
ATOM      4  C   UNL     1      24.505   7.190  16.703  1.00  0.00    -0.048 A 
ATOM      5  C   UNL     1      24.550   5.816  17.061  1.00  0.00    -0.058 A 
ATOM      6  C   UNL     1      25.202   5.364  18.246  1.00  0.00    -0.047 A 
ATOM      7  C   UNL     1      25.801   6.348  19.067  1.00  0.00     0.064 A 
ATOM      8  C   UNL     1      25.091   8.079  17.575  1.00  0.00    -0.058 A 
ATOM      9  C   UNL     1      25.741   7.672  18.715  1.00  0.00    -0.047 A 
BRANCH   7  10
ATOM     10  C   UNL     1      26.527   6.080  20.425  1.00  0.00     0.386 C 
ATOM     11  O   UNL     1      25.910   6.446  21.468  1.00  0.00    -0.242 OA
ATOM     12  O   UNL     1      27.653   5.470  20.394  1.00  0.00    -0.242 OA
ENDBRANCH   7  10
ENDBRANCH   3   4
ENDBRANCH   2   3
ENDBRANCH   1   2
BRANCH   1  13
ATOM     13  N   UNL     1      22.762   6.927  12.900  1.00  0.00    -0.211 NA
BRANCH  13  14
ATOM     14  S   UNL     1      23.804   5.639  12.328  1.00  0.00     0.242 S 
ATOM     15  O   UNL     1      23.870   4.647  13.471  1.00  0.00    -0.207 OA
ATOM     16  O   UNL     1      25.160   6.126  11.902  1.00  0.00    -0.207 OA
BRANCH  14  17
ATOM     17  C   UNL     1      23.017   4.984  10.922  1.00  0.00     0.108 A 
ATOM     18  C   UNL     1      22.444   3.754  10.957  1.00  0.00    -0.030 A 
ATOM     19  C   UNL     1      22.869   5.649   9.681  1.00  0.00     0.137 A 
ATOM     20  C   UNL     1      21.813   3.358   9.823  1.00  0.00    -0.007 A 
ATOM     21  S   UNL     1      21.966   4.611   8.639  1.00  0.00    -0.135 S 
BRANCH  19  22
ATOM     22  C   UNL     1      23.329   7.022   9.192  1.00  0.00     0.397 C 
ATOM     23  O   UNL     1      24.382   6.976   8.485  1.00  0.00    -0.240 OA
ATOM     24  O   UNL     1      22.697   8.062   9.498  1.00  0.00    -0.240 OA
ENDBRANCH  19  22
ENDBRANCH  14  17
ENDBRANCH  13  14
ENDBRANCH   1  13
TORSDOF 8
ENDMDL
MODEL 7
REMARK VINA RESULT:    -7.103      3.380      9.497
REMARK INTER + INTRA:         -11.359
REMARK INTER:                 -10.668
REMARK INTRA:                  -0.692
REMARK UNBOUND:                -0.934
REMARK SMILES O=S(=O)(NCCCc1ccc(C(:O):O)cc1)c1ccsc1C(:O):O
REMARK SMILES IDX 5 1 6 2 7 3 8 4 9 5 10 6 11 7 16 8 15 9 12 10 13 11 14 12
REMARK SMILES IDX 4 13 2 14 1 15 3 16 17 17 18 18 21 19 19 20 20 21 22 22
REMARK SMILES IDX 23 23 24 24
REMARK H PARENT
REMARK Flexibility Score: inf
ROOT
ATOM      1  C   UNL     1      21.908   5.606  14.162  1.00  0.00     0.011 C 
ENDROOT
BRANCH   1   2
ATOM      2  C   UNL     1      22.951   5.599  15.357  1.00  0.00    -0.035 C 
BRANCH   2   3
ATOM      3  C   UNL     1      23.974   6.780  15.377  1.00  0.00    -0.027 C 
BRANCH   3   4
ATOM      4  C   UNL     1      24.722   6.805  16.726  1.00  0.00    -0.048 A 
ATOM      5  C   UNL     1      25.388   7.915  17.308  1.00  0.00    -0.058 A 
ATOM      6  C   UNL     1      26.039   7.828  18.574  1.00  0.00    -0.047 A 
ATOM      7  C   UNL     1      26.005   6.576  19.231  1.00  0.00     0.064 A 
ATOM      8  C   UNL     1      24.763   5.620  17.423  1.00  0.00    -0.058 A 
ATOM      9  C   UNL     1      25.367   5.510  18.653  1.00  0.00    -0.047 A 
BRANCH   7  10
ATOM     10  C   UNL     1      26.686   6.250  20.599  1.00  0.00     0.386 C 
ATOM     11  O   UNL     1      25.962   6.387  21.628  1.00  0.00    -0.242 OA
ATOM     12  O   UNL     1      27.894   5.823  20.584  1.00  0.00    -0.242 OA
ENDBRANCH   7  10
ENDBRANCH   3   4
ENDBRANCH   2   3
ENDBRANCH   1   2
BRANCH   1  13
ATOM     13  N   UNL     1      22.454   4.962  12.931  1.00  0.00    -0.211 NA
BRANCH  13  14
ATOM     14  S   UNL     1      23.082   6.037  11.698  1.00  0.00     0.242 S 
ATOM     15  O   UNL     1      24.580   6.054  11.914  1.00  0.00    -0.207 OA
ATOM     16  O   UNL     1      22.471   7.408  11.747  1.00  0.00    -0.207 OA
BRANCH  14  17
ATOM     17  C   UNL     1      22.637   5.320  10.176  1.00  0.00     0.108 A 
ATOM     18  C   UNL     1      21.949   4.151  10.135  1.00  0.00    -0.030 A 
ATOM     19  C   UNL     1      22.899   5.876   8.901  1.00  0.00     0.137 A 
ATOM     20  C   UNL     1      21.609   3.703   8.900  1.00  0.00    -0.007 A 
ATOM     21  S   UNL     1      22.205   4.823   7.723  1.00  0.00    -0.135 S 
BRANCH  19  22
ATOM     22  C   UNL     1      23.615   7.154   8.466  1.00  0.00     0.397 C 
ATOM     23  O   UNL     1      22.913   8.199   8.616  1.00  0.00    -0.240 OA
ATOM     24  O   UNL     1      24.780   7.113   8.000  1.00  0.00    -0.240 OA
ENDBRANCH  19  22
ENDBRANCH  14  17
ENDBRANCH  13  14
ENDBRANCH   1  13
TORSDOF 8
ENDMDL
MODEL 8
REMARK VINA RESULT:    -7.058      2.047      2.860
REMARK INTER + INTRA:         -11.293
REMARK INTER:                 -10.677
REMARK INTRA:                  -0.615
REMARK UNBOUND:                -0.934
REMARK SMILES O=S(=O)(NCCCc1ccc(C(:O):O)cc1)c1ccsc1C(:O):O
REMARK SMILES IDX 5 1 6 2 7 3 8 4 9 5 10 6 11 7 16 8 15 9 12 10 13 11 14 12
REMARK SMILES IDX 4 13 2 14 1 15 3 16 17 17 18 18 21 19 19 20 20 21 22 22
REMARK SMILES IDX 23 23 24 24
REMARK H PARENT
REMARK Flexibility Score: inf
ROOT
ATOM      1  C   UNL     1      23.442   6.294  15.204  1.00  0.00     0.011 C 
ENDROOT
BRANCH   1   2
ATOM      2  C   UNL     1      24.383   5.217  14.519  1.00  0.00    -0.035 C 
BRANCH   2   3
ATOM      3  C   UNL     1      24.893   5.571  13.085  1.00  0.00    -0.027 C 
BRANCH   3   4
ATOM      4  C   UNL     1      23.933   4.988  12.027  1.00  0.00    -0.048 A 
ATOM      5  C   UNL     1      23.187   3.784  12.128  1.00  0.00    -0.058 A 
ATOM      6  C   UNL     1      22.313   3.346  11.089  1.00  0.00    -0.047 A 
ATOM      7  C   UNL     1      22.225   4.160   9.935  1.00  0.00     0.064 A 
ATOM      8  C   UNL     1      23.805   5.702  10.858  1.00  0.00    -0.058 A 
ATOM      9  C   UNL     1      22.959   5.314   9.847  1.00  0.00    -0.047 A 
BRANCH   7  10
ATOM     10  C   UNL     1      21.366   3.849   8.668  1.00  0.00     0.386 C 
ATOM     11  O   UNL     1      21.719   4.430   7.600  1.00  0.00    -0.242 OA
ATOM     12  O   UNL     1      20.412   3.001   8.781  1.00  0.00    -0.242 OA
ENDBRANCH   7  10
ENDBRANCH   3   4
ENDBRANCH   2   3
ENDBRANCH   1   2
BRANCH   1  13
ATOM     13  N   UNL     1      22.762   5.760  16.420  1.00  0.00    -0.211 NA
BRANCH  13  14
ATOM     14  S   UNL     1      22.627   6.851  17.785  1.00  0.00     0.242 S 
ATOM     15  O   UNL     1      21.292   6.524  18.421  1.00  0.00    -0.207 OA
ATOM     16  O   UNL     1      22.749   8.296  17.396  1.00  0.00    -0.207 OA
BRANCH  14  17
ATOM     17  C   UNL     1      23.971   6.473  18.825  1.00  0.00     0.108 A 
ATOM     18  C   UNL     1      23.778   5.811  19.994  1.00  0.00    -0.030 A 
ATOM     19  C   UNL     1      25.327   6.767  18.550  1.00  0.00     0.137 A 
ATOM     20  C   UNL     1      24.896   5.522  20.706  1.00  0.00    -0.007 A 
ATOM     21  S   UNL     1      26.270   6.136  19.851  1.00  0.00    -0.135 S 
BRANCH  19  22
ATOM     22  C   UNL     1      26.007   7.473  17.377  1.00  0.00     0.397 C 
ATOM     23  O   UNL     1      26.574   6.673  16.571  1.00  0.00    -0.240 OA
ATOM     24  O   UNL     1      25.987   8.724  17.276  1.00  0.00    -0.240 OA
ENDBRANCH  19  22
ENDBRANCH  14  17
ENDBRANCH  13  14
ENDBRANCH   1  13
TORSDOF 8
ENDMDL
MODEL 9
REMARK VINA RESULT:    -7.008      2.935      8.013
REMARK INTER + INTRA:         -11.219
REMARK INTER:                  -9.855
REMARK INTRA:                  -1.365
REMARK UNBOUND:                -0.934
REMARK SMILES O=S(=O)(NCCCc1ccc(C(:O):O)cc1)c1ccsc1C(:O):O
REMARK SMILES IDX 5 1 6 2 7 3 8 4 9 5 10 6 11 7 16 8 15 9 12 10 13 11 14 12
REMARK SMILES IDX 4 13 2 14 1 15 3 16 17 17 18 18 21 19 19 20 20 21 22 22
REMARK SMILES IDX 23 23 24 24
REMARK H PARENT
REMARK Flexibility Score: inf
ROOT
ATOM      1  C   UNL     1      21.145   8.315  15.391  1.00  0.00     0.011 C 
ENDROOT
BRANCH   1   2
ATOM      2  C   UNL     1      22.558   8.951  15.730  1.00  0.00    -0.035 C 
BRANCH   2   3
ATOM      3  C   UNL     1      22.778   9.370  17.219  1.00  0.00    -0.027 C 
BRANCH   3   4
ATOM      4  C   UNL     1      23.787   8.415  17.890  1.00  0.00    -0.048 A 
ATOM      5  C   UNL     1      25.203   8.488  17.819  1.00  0.00    -0.058 A 
ATOM      6  C   UNL     1      26.043   7.555  18.495  1.00  0.00    -0.047 A 
ATOM      7  C   UNL     1      25.406   6.535  19.240  1.00  0.00     0.064 A 
ATOM      8  C   UNL     1      23.254   7.374  18.615  1.00  0.00    -0.058 A 
ATOM      9  C   UNL     1      24.037   6.471  19.291  1.00  0.00    -0.047 A 
BRANCH   7  10
ATOM     10  C   UNL     1      26.131   5.391  20.019  1.00  0.00     0.386 C 
ATOM     11  O   UNL     1      27.387   5.329  19.875  1.00  0.00    -0.242 OA
ATOM     12  O   UNL     1      25.424   4.639  20.778  1.00  0.00    -0.242 OA
ENDBRANCH   7  10
ENDBRANCH   3   4
ENDBRANCH   2   3
ENDBRANCH   1   2
BRANCH   1  13
ATOM     13  N   UNL     1      21.196   7.425  14.195  1.00  0.00    -0.211 NA
BRANCH  13  14
ATOM     14  S   UNL     1      21.489   5.724  14.497  1.00  0.00     0.242 S 
ATOM     15  O   UNL     1      20.844   5.000  13.333  1.00  0.00    -0.207 OA
ATOM     16  O   UNL     1      20.967   5.266  15.829  1.00  0.00    -0.207 OA
BRANCH  14  17
ATOM     17  C   UNL     1      23.219   5.540  14.520  1.00  0.00     0.108 A 
ATOM     18  C   UNL     1      23.895   5.488  15.695  1.00  0.00    -0.030 A 
ATOM     19  C   UNL     1      24.042   5.393  13.378  1.00  0.00     0.137 A 
ATOM     20  C   UNL     1      25.235   5.293  15.603  1.00  0.00    -0.007 A 
ATOM     21  S   UNL     1      25.663   5.181  13.931  1.00  0.00    -0.135 S 
BRANCH  19  22
ATOM     22  C   UNL     1      23.729   5.377  11.882  1.00  0.00     0.397 C 
ATOM     23  O   UNL     1      23.466   4.218  11.437  1.00  0.00    -0.240 OA
ATOM     24  O   UNL     1      23.757   6.433  11.205  1.00  0.00    -0.240 OA
ENDBRANCH  19  22
ENDBRANCH  14  17
ENDBRANCH  13  14
ENDBRANCH   1  13
TORSDOF 8
ENDMDL
MODEL 10
REMARK VINA RESULT:    -6.980      2.098      3.116
REMARK INTER + INTRA:         -11.178
REMARK INTER:                 -10.396
REMARK INTRA:                  -0.782
REMARK UNBOUND:                -0.934
REMARK SMILES O=S(=O)(NCCCc1ccc(C(:O):O)cc1)c1ccsc1C(:O):O
REMARK SMILES IDX 5 1 6 2 7 3 8 4 9 5 10 6 11 7 16 8 15 9 12 10 13 11 14 12
REMARK SMILES IDX 4 13 2 14 1 15 3 16 17 17 18 18 21 19 19 20 20 21 22 22
REMARK SMILES IDX 23 23 24 24
REMARK H PARENT
REMARK Flexibility Score: inf
ROOT
ATOM      1  C   UNL     1      26.028   5.783  14.956  1.00  0.00     0.011 C 
ENDROOT
BRANCH   1   2
ATOM      2  C   UNL     1      25.591   5.294  13.512  1.00  0.00    -0.035 C 
BRANCH   2   3
ATOM      3  C   UNL     1      24.266   4.469  13.443  1.00  0.00    -0.027 C 
BRANCH   3   4
ATOM      4  C   UNL     1      23.657   4.569  12.029  1.00  0.00    -0.048 A 
ATOM      5  C   UNL     1      23.845   5.622  11.095  1.00  0.00    -0.058 A 
ATOM      6  C   UNL     1      23.242   5.604   9.803  1.00  0.00    -0.047 A 
ATOM      7  C   UNL     1      22.432   4.488   9.485  1.00  0.00     0.064 A 
ATOM      8  C   UNL     1      22.832   3.537  11.644  1.00  0.00    -0.058 A 
ATOM      9  C   UNL     1      22.251   3.484  10.400  1.00  0.00    -0.047 A 
BRANCH   7  10
ATOM     10  C   UNL     1      21.648   4.286   8.149  1.00  0.00     0.386 C 
ATOM     11  O   UNL     1      20.676   3.476   8.191  1.00  0.00    -0.242 OA
ATOM     12  O   UNL     1      22.002   4.982   7.133  1.00  0.00    -0.242 OA
ENDBRANCH   7  10
ENDBRANCH   3   4
ENDBRANCH   2   3
ENDBRANCH   1   2
BRANCH   1  13
ATOM     13  N   UNL     1      25.305   5.059  16.042  1.00  0.00    -0.211 NA
BRANCH  13  14
ATOM     14  S   UNL     1      25.010   5.955  17.519  1.00  0.00     0.242 S 
ATOM     15  O   UNL     1      26.384   6.317  18.043  1.00  0.00    -0.207 OA
ATOM     16  O   UNL     1      24.190   5.188  18.517  1.00  0.00    -0.207 OA
BRANCH  14  17
ATOM     17  C   UNL     1      24.088   7.353  17.046  1.00  0.00     0.108 A 
ATOM     18  C   UNL     1      24.668   8.578  16.986  1.00  0.00    -0.030 A 
ATOM     19  C   UNL     1      22.726   7.344  16.661  1.00  0.00     0.137 A 
ATOM     20  C   UNL     1      23.874   9.592  16.558  1.00  0.00    -0.007 A 
ATOM     21  S   UNL     1      22.299   8.958  16.226  1.00  0.00    -0.135 S 
BRANCH  19  22
ATOM     22  C   UNL     1      21.694   6.221  16.564  1.00  0.00     0.397 C 
ATOM     23  O   UNL     1      20.767   6.316  17.425  1.00  0.00    -0.240 OA
ATOM     24  O   UNL     1      21.808   5.311  15.706  1.00  0.00    -0.240 OA
ENDBRANCH  19  22
ENDBRANCH  14  17
ENDBRANCH  13  14
ENDBRANCH   1  13
TORSDOF 8
ENDMDL
MODEL 11
REMARK VINA RESULT:    -6.877      2.241      2.822
REMARK INTER + INTRA:         -11.027
REMARK INTER:                 -10.140
REMARK INTRA:                  -0.888
REMARK UNBOUND:                -0.934
REMARK SMILES O=S(=O)(NCCCc1ccc(C(:O):O)cc1)c1ccsc1C(:O):O
REMARK SMILES IDX 5 1 6 2 7 3 8 4 9 5 10 6 11 7 16 8 15 9 12 10 13 11 14 12
REMARK SMILES IDX 4 13 2 14 1 15 3 16 17 17 18 18 21 19 19 20 20 21 22 22
REMARK SMILES IDX 23 23 24 24
REMARK H PARENT
REMARK Flexibility Score: inf
ROOT
ATOM      1  C   UNL     1      22.772   5.927  14.509  1.00  0.00     0.011 C 
ENDROOT
BRANCH   1   2
ATOM      2  C   UNL     1      24.210   5.281  14.338  1.00  0.00    -0.035 C 
BRANCH   2   3
ATOM      3  C   UNL     1      24.848   5.403  12.917  1.00  0.00    -0.027 C 
BRANCH   3   4
ATOM      4  C   UNL     1      23.871   4.860  11.853  1.00  0.00    -0.048 A 
ATOM      5  C   UNL     1      23.180   3.620  11.888  1.00  0.00    -0.058 A 
ATOM      6  C   UNL     1      22.284   3.224  10.852  1.00  0.00    -0.047 A 
ATOM      7  C   UNL     1      22.114   4.119   9.770  1.00  0.00     0.064 A 
ATOM      8  C   UNL     1      23.665   5.656  10.750  1.00  0.00    -0.058 A 
ATOM      9  C   UNL     1      22.795   5.309   9.744  1.00  0.00    -0.047 A 
BRANCH   7  10
ATOM     10  C   UNL     1      21.218   3.868   8.515  1.00  0.00     0.386 C 
ATOM     11  O   UNL     1      21.576   4.449   7.449  1.00  0.00    -0.242 OA
ATOM     12  O   UNL     1      20.228   3.063   8.634  1.00  0.00    -0.242 OA
ENDBRANCH   7  10
ENDBRANCH   3   4
ENDBRANCH   2   3
ENDBRANCH   1   2
BRANCH   1  13
ATOM     13  N   UNL     1      22.161   5.606  15.832  1.00  0.00    -0.211 NA
BRANCH  13  14
ATOM     14  S   UNL     1      22.024   6.931  16.973  1.00  0.00     0.242 S 
ATOM     15  O   UNL     1      21.391   6.324  18.208  1.00  0.00    -0.207 OA
ATOM     16  O   UNL     1      21.244   8.094  16.430  1.00  0.00    -0.207 OA
BRANCH  14  17
ATOM     17  C   UNL     1      23.651   7.478  17.258  1.00  0.00     0.108 A 
ATOM     18  C   UNL     1      24.027   8.738  16.926  1.00  0.00    -0.030 A 
ATOM     19  C   UNL     1      24.676   6.716  17.869  1.00  0.00     0.137 A 
ATOM     20  C   UNL     1      25.303   9.081  17.236  1.00  0.00    -0.007 A 
ATOM     21  S   UNL     1      26.074   7.722  17.980  1.00  0.00    -0.135 S 
BRANCH  19  22
ATOM     22  C   UNL     1      24.710   5.286  18.406  1.00  0.00     0.397 C 
ATOM     23  O   UNL     1      25.197   4.452  17.583  1.00  0.00    -0.240 OA
ATOM     24  O   UNL     1      24.275   5.017  19.553  1.00  0.00    -0.240 OA
ENDBRANCH  19  22
ENDBRANCH  14  17
ENDBRANCH  13  14
ENDBRANCH   1  13
TORSDOF 8
ENDMDL
MODEL 12
REMARK VINA RESULT:    -6.806      3.199      8.191
REMARK INTER + INTRA:         -10.922
REMARK INTER:                  -9.907
REMARK INTRA:                  -1.015
REMARK UNBOUND:                -0.934
REMARK SMILES O=S(=O)(NCCCc1ccc(C(:O):O)cc1)c1ccsc1C(:O):O
REMARK SMILES IDX 5 1 6 2 7 3 8 4 9 5 10 6 11 7 16 8 15 9 12 10 13 11 14 12
REMARK SMILES IDX 4 13 2 14 1 15 3 16 17 17 18 18 21 19 19 20 20 21 22 22
REMARK SMILES IDX 23 23 24 24
REMARK H PARENT
REMARK Flexibility Score: inf
ROOT
ATOM      1  C   UNL     1      21.981   8.216  14.697  1.00  0.00     0.011 C 
ENDROOT
BRANCH   1   2
ATOM      2  C   UNL     1      22.602   9.256  15.722  1.00  0.00    -0.035 C 
BRANCH   2   3
ATOM      3  C   UNL     1      24.157   9.227  15.865  1.00  0.00    -0.027 C 
BRANCH   3   4
ATOM      4  C   UNL     1      24.558   8.373  17.086  1.00  0.00    -0.048 A 
ATOM      5  C   UNL     1      23.680   7.731  17.998  1.00  0.00    -0.058 A 
ATOM      6  C   UNL     1      24.162   6.949  19.089  1.00  0.00    -0.047 A 
ATOM      7  C   UNL     1      25.565   6.844  19.236  1.00  0.00     0.064 A 
ATOM      8  C   UNL     1      25.906   8.238  17.322  1.00  0.00    -0.058 A 
ATOM      9  C   UNL     1      26.401   7.478  18.354  1.00  0.00    -0.047 A 
BRANCH   7  10
ATOM     10  C   UNL     1      26.304   6.076  20.380  1.00  0.00     0.386 C 
ATOM     11  O   UNL     1      27.330   5.420  20.036  1.00  0.00    -0.242 OA
ATOM     12  O   UNL     1      25.859   6.204  21.574  1.00  0.00    -0.242 OA
ENDBRANCH   7  10
ENDBRANCH   3   4
ENDBRANCH   2   3
ENDBRANCH   1   2
BRANCH   1  13
ATOM     13  N   UNL     1      23.029   7.418  13.996  1.00  0.00    -0.211 NA
BRANCH  13  14
ATOM     14  S   UNL     1      23.174   5.735  14.463  1.00  0.00     0.242 S 
ATOM     15  O   UNL     1      22.306   5.591  15.696  1.00  0.00    -0.207 OA
ATOM     16  O   UNL     1      24.596   5.312  14.700  1.00  0.00    -0.207 OA
BRANCH  14  17
ATOM     17  C   UNL     1      22.572   4.817  13.113  1.00  0.00     0.108 A 
ATOM     18  C   UNL     1      23.339   3.865  12.525  1.00  0.00    -0.030 A 
ATOM     19  C   UNL     1      21.279   4.940  12.552  1.00  0.00     0.137 A 
ATOM     20  C   UNL     1      22.757   3.173  11.513  1.00  0.00    -0.007 A 
ATOM     21  S   UNL     1      21.150   3.774  11.286  1.00  0.00    -0.135 S 
BRANCH  19  22
ATOM     22  C   UNL     1      20.096   5.848  12.886  1.00  0.00     0.397 C 
ATOM     23  O   UNL     1      19.563   5.586  14.007  1.00  0.00    -0.240 OA
ATOM     24  O   UNL     1      19.723   6.742  12.087  1.00  0.00    -0.240 OA
ENDBRANCH  19  22
ENDBRANCH  14  17
ENDBRANCH  13  14
ENDBRANCH   1  13
TORSDOF 8
ENDMDL
MODEL 13
REMARK VINA RESULT:    -6.803      3.094      4.464
REMARK INTER + INTRA:         -10.919
REMARK INTER:                 -10.162
REMARK INTRA:                  -0.756
REMARK UNBOUND:                -0.934
REMARK SMILES O=S(=O)(NCCCc1ccc(C(:O):O)cc1)c1ccsc1C(:O):O
REMARK SMILES IDX 5 1 6 2 7 3 8 4 9 5 10 6 11 7 16 8 15 9 12 10 13 11 14 12
REMARK SMILES IDX 4 13 2 14 1 15 3 16 17 17 18 18 21 19 19 20 20 21 22 22
REMARK SMILES IDX 23 23 24 24
REMARK H PARENT
REMARK Flexibility Score: inf
ROOT
ATOM      1  C   UNL     1      24.613   5.339  12.352  1.00  0.00     0.011 C 
ENDROOT
BRANCH   1   2
ATOM      2  C   UNL     1      23.546   5.056  11.213  1.00  0.00    -0.035 C 
BRANCH   2   3
ATOM      3  C   UNL     1      22.741   3.723  11.348  1.00  0.00    -0.027 C 
BRANCH   3   4
ATOM      4  C   UNL     1      21.496   3.766  10.438  1.00  0.00    -0.048 A 
ATOM      5  C   UNL     1      21.296   4.605   9.310  1.00  0.00    -0.058 A 
ATOM      6  C   UNL     1      20.106   4.550   8.528  1.00  0.00    -0.047 A 
ATOM      7  C   UNL     1      19.114   3.624   8.928  1.00  0.00     0.064 A 
ATOM      8  C   UNL     1      20.467   2.915  10.770  1.00  0.00    -0.058 A 
ATOM      9  C   UNL     1      19.316   2.827  10.025  1.00  0.00    -0.047 A 
BRANCH   7  10
ATOM     10  C   UNL     1      17.723   3.428   8.242  1.00  0.00     0.386 C 
ATOM     11  O   UNL     1      17.029   4.475   8.085  1.00  0.00    -0.242 OA
ATOM     12  O   UNL     1      17.409   2.252   7.844  1.00  0.00    -0.242 OA
ENDBRANCH   7  10
ENDBRANCH   3   4
ENDBRANCH   2   3
ENDBRANCH   1   2
BRANCH   1  13
ATOM     13  N   UNL     1      24.143   4.887  13.694  1.00  0.00    -0.211 NA
BRANCH  13  14
ATOM     14  S   UNL     1      23.165   6.023  14.604  1.00  0.00     0.242 S 
ATOM     15  O   UNL     1      21.824   5.340  14.775  1.00  0.00    -0.207 OA
ATOM     16  O   UNL     1      23.054   7.365  13.940  1.00  0.00    -0.207 OA
BRANCH  14  17
ATOM     17  C   UNL     1      23.994   6.252  16.116  1.00  0.00     0.108 A 
ATOM     18  C   UNL     1      23.351   6.061  17.295  1.00  0.00    -0.030 A 
ATOM     19  C   UNL     1      25.358   6.604  16.257  1.00  0.00     0.137 A 
ATOM     20  C   UNL     1      24.102   6.217  18.415  1.00  0.00    -0.007 A 
ATOM     21  S   UNL     1      25.711   6.645  17.946  1.00  0.00    -0.135 S 
BRANCH  19  22
ATOM     22  C   UNL     1      26.453   6.900  15.233  1.00  0.00     0.397 C 
ATOM     23  O   UNL     1      27.281   5.949  15.094  1.00  0.00    -0.240 OA
ATOM     24  O   UNL     1      26.490   7.999  14.628  1.00  0.00    -0.240 OA
ENDBRANCH  19  22
ENDBRANCH  14  17
ENDBRANCH  13  14
ENDBRANCH   1  13
TORSDOF 8
ENDMDL
MODEL 14
REMARK VINA RESULT:    -6.789      3.197      9.245
REMARK INTER + INTRA:         -10.899
REMARK INTER:                 -10.329
REMARK INTRA:                  -0.570
REMARK UNBOUND:                -0.934
REMARK SMILES O=S(=O)(NCCCc1ccc(C(:O):O)cc1)c1ccsc1C(:O):O
REMARK SMILES IDX 5 1 6 2 7 3 8 4 9 5 10 6 11 7 16 8 15 9 12 10 13 11 14 12
REMARK SMILES IDX 4 13 2 14 1 15 3 16 17 17 18 18 21 19 19 20 20 21 22 22
REMARK SMILES IDX 23 23 24 24
REMARK H PARENT
REMARK Flexibility Score: inf
ROOT
ATOM      1  C   UNL     1      25.081   5.240  13.052  1.00  0.00     0.011 C 
ENDROOT
BRANCH   1   2
ATOM      2  C   UNL     1      25.878   5.779  14.312  1.00  0.00    -0.035 C 
BRANCH   2   3
ATOM      3  C   UNL     1      25.251   7.012  15.040  1.00  0.00    -0.027 C 
BRANCH   3   4
ATOM      4  C   UNL     1      25.292   6.798  16.567  1.00  0.00    -0.048 A 
ATOM      5  C   UNL     1      25.520   7.789  17.558  1.00  0.00    -0.058 A 
ATOM      6  C   UNL     1      25.522   7.480  18.950  1.00  0.00    -0.047 A 
ATOM      7  C   UNL     1      25.295   6.131  19.311  1.00  0.00     0.064 A 
ATOM      8  C   UNL     1      25.107   5.508  17.009  1.00  0.00    -0.058 A 
ATOM      9  C   UNL     1      25.086   5.183  18.344  1.00  0.00    -0.047 A 
BRANCH   7  10
ATOM     10  C   UNL     1      25.296   5.569  20.769  1.00  0.00     0.386 C 
ATOM     11  O   UNL     1      25.780   6.328  21.658  1.00  0.00    -0.242 OA
ATOM     12  O   UNL     1      24.768   4.419  20.971  1.00  0.00    -0.242 OA
ENDBRANCH   7  10
ENDBRANCH   3   4
ENDBRANCH   2   3
ENDBRANCH   1   2
BRANCH   1  13
ATOM     13  N   UNL     1      23.683   5.758  13.001  1.00  0.00    -0.211 NA
BRANCH  13  14
ATOM     14  S   UNL     1      22.510   4.766  12.157  1.00  0.00     0.242 S 
ATOM     15  O   UNL     1      21.191   5.038  12.851  1.00  0.00    -0.207 OA
ATOM     16  O   UNL     1      22.873   3.309  12.147  1.00  0.00    -0.207 OA
BRANCH  14  17
ATOM     17  C   UNL     1      22.522   5.322  10.508  1.00  0.00     0.108 A 
ATOM     18  C   UNL     1      23.436   6.234  10.091  1.00  0.00    -0.030 A 
ATOM     19  C   UNL     1      21.654   4.870   9.486  1.00  0.00     0.137 A 
ATOM     20  C   UNL     1      23.391   6.562   8.774  1.00  0.00    -0.007 A 
ATOM     21  S   UNL     1      22.109   5.672   8.027  1.00  0.00    -0.135 S 
BRANCH  19  22
ATOM     22  C   UNL     1      20.504   3.864   9.486  1.00  0.00     0.397 C 
ATOM     23  O   UNL     1      20.592   3.001   8.559  1.00  0.00    -0.240 OA
ATOM     24  O   UNL     1      19.582   3.936  10.335  1.00  0.00    -0.240 OA
ENDBRANCH  19  22
ENDBRANCH  14  17
ENDBRANCH  13  14
ENDBRANCH   1  13
TORSDOF 8
ENDMDL
MODEL 15
REMARK VINA RESULT:    -6.710      1.983      3.161
REMARK INTER + INTRA:         -10.782
REMARK INTER:                  -9.790
REMARK INTRA:                  -0.993
REMARK UNBOUND:                -0.934
REMARK SMILES O=S(=O)(NCCCc1ccc(C(:O):O)cc1)c1ccsc1C(:O):O
REMARK SMILES IDX 5 1 6 2 7 3 8 4 9 5 10 6 11 7 16 8 15 9 12 10 13 11 14 12
REMARK SMILES IDX 4 13 2 14 1 15 3 16 17 17 18 18 21 19 19 20 20 21 22 22
REMARK SMILES IDX 23 23 24 24
REMARK H PARENT
REMARK Flexibility Score: inf
ROOT
ATOM      1  C   UNL     1      26.433   6.675  15.624  1.00  0.00     0.011 C 
ENDROOT
BRANCH   1   2
ATOM      2  C   UNL     1      26.135   6.020  14.210  1.00  0.00    -0.035 C 
BRANCH   2   3
ATOM      3  C   UNL     1      25.168   4.793  14.216  1.00  0.00    -0.027 C 
BRANCH   3   4
ATOM      4  C   UNL     1      24.372   4.744  12.896  1.00  0.00    -0.048 A 
ATOM      5  C   UNL     1      24.414   5.695  11.842  1.00  0.00    -0.058 A 
ATOM      6  C   UNL     1      23.642   5.541  10.653  1.00  0.00    -0.047 A 
ATOM      7  C   UNL     1      22.815   4.397  10.565  1.00  0.00     0.064 A 
ATOM      8  C   UNL     1      23.519   3.676  12.735  1.00  0.00    -0.058 A 
ATOM      9  C   UNL     1      22.777   3.492  11.594  1.00  0.00    -0.047 A 
BRANCH   7  10
ATOM     10  C   UNL     1      21.860   4.056   9.376  1.00  0.00     0.386 C 
ATOM     11  O   UNL     1      22.234   4.447   8.232  1.00  0.00    -0.242 OA
ATOM     12  O   UNL     1      20.808   3.369   9.628  1.00  0.00    -0.242 OA
ENDBRANCH   7  10
ENDBRANCH   3   4
ENDBRANCH   2   3
ENDBRANCH   1   2
BRANCH   1  13
ATOM     13  N   UNL     1      25.659   6.026  16.722  1.00  0.00    -0.211 NA
BRANCH  13  14
ATOM     14  S   UNL     1      25.096   7.075  18.008  1.00  0.00     0.242 S 
ATOM     15  O   UNL     1      25.778   8.404  17.761  1.00  0.00    -0.207 OA
ATOM     16  O   UNL     1      25.371   6.525  19.378  1.00  0.00    -0.207 OA
BRANCH  14  17
ATOM     17  C   UNL     1      23.368   7.167  17.818  1.00  0.00     0.108 A 
ATOM     18  C   UNL     1      22.539   6.749  18.807  1.00  0.00    -0.030 A 
ATOM     19  C   UNL     1      22.696   7.697  16.691  1.00  0.00     0.137 A 
ATOM     20  C   UNL     1      21.211   6.911  18.578  1.00  0.00    -0.007 A 
ATOM     21  S   UNL     1      21.002   7.622  17.014  1.00  0.00    -0.135 S 
BRANCH  19  22
ATOM     22  C   UNL     1      23.204   8.283  15.374  1.00  0.00     0.397 C 
ATOM     23  O   UNL     1      22.915   7.573  14.364  1.00  0.00    -0.240 OA
ATOM     24  O   UNL     1      23.849   9.360  15.354  1.00  0.00    -0.240 OA
ENDBRANCH  19  22
ENDBRANCH  14  17
ENDBRANCH  13  14
ENDBRANCH   1  13
TORSDOF 8
ENDMDL
MODEL 16
REMARK VINA RESULT:    -6.685      2.042      2.571
REMARK INTER + INTRA:         -10.746
REMARK INTER:                 -10.061
REMARK INTRA:                  -0.685
REMARK UNBOUND:                -0.934
REMARK SMILES O=S(=O)(NCCCc1ccc(C(:O):O)cc1)c1ccsc1C(:O):O
REMARK SMILES IDX 5 1 6 2 7 3 8 4 9 5 10 6 11 7 16 8 15 9 12 10 13 11 14 12
REMARK SMILES IDX 4 13 2 14 1 15 3 16 17 17 18 18 21 19 19 20 20 21 22 22
REMARK SMILES IDX 23 23 24 24
REMARK H PARENT
REMARK Flexibility Score: inf
ROOT
ATOM      1  C   UNL     1      24.032   5.499  14.959  1.00  0.00     0.011 C 
ENDROOT
BRANCH   1   2
ATOM      2  C   UNL     1      24.546   5.130  13.505  1.00  0.00    -0.035 C 
BRANCH   2   3
ATOM      3  C   UNL     1      23.686   4.087  12.722  1.00  0.00    -0.027 C 
BRANCH   3   4
ATOM      4  C   UNL     1      23.353   4.628  11.316  1.00  0.00    -0.048 A 
ATOM      5  C   UNL     1      22.509   4.022  10.349  1.00  0.00    -0.058 A 
ATOM      6  C   UNL     1      22.259   4.622   9.080  1.00  0.00    -0.047 A 
ATOM      7  C   UNL     1      22.901   5.854   8.812  1.00  0.00     0.064 A 
ATOM      8  C   UNL     1      23.956   5.813  10.959  1.00  0.00    -0.058 A 
ATOM      9  C   UNL     1      23.722   6.423   9.751  1.00  0.00    -0.047 A 
BRANCH   7  10
ATOM     10  C   UNL     1      22.801   6.659   7.476  1.00  0.00     0.386 C 
ATOM     11  O   UNL     1      23.717   6.448   6.629  1.00  0.00    -0.242 OA
ATOM     12  O   UNL     1      21.787   7.426   7.311  1.00  0.00    -0.242 OA
ENDBRANCH   7  10
ENDBRANCH   3   4
ENDBRANCH   2   3
ENDBRANCH   1   2
BRANCH   1  13
ATOM     13  N   UNL     1      24.303   6.923  15.312  1.00  0.00    -0.211 NA
BRANCH  13  14
ATOM     14  S   UNL     1      25.588   7.213  16.467  1.00  0.00     0.242 S 
ATOM     15  O   UNL     1      25.726   8.719  16.536  1.00  0.00    -0.207 OA
ATOM     16  O   UNL     1      26.873   6.527  16.101  1.00  0.00    -0.207 OA
BRANCH  14  17
ATOM     17  C   UNL     1      25.037   6.526  17.968  1.00  0.00     0.108 A 
ATOM     18  C   UNL     1      25.855   5.741  18.713  1.00  0.00    -0.030 A 
ATOM     19  C   UNL     1      23.763   6.740  18.547  1.00  0.00     0.137 A 
ATOM     20  C   UNL     1      25.344   5.297  19.890  1.00  0.00    -0.007 A 
ATOM     21  S   UNL     1      23.730   5.899  20.054  1.00  0.00    -0.135 S 
BRANCH  19  22
ATOM     22  C   UNL     1      22.548   7.543  18.087  1.00  0.00     0.397 C 
ATOM     23  O   UNL     1      21.563   6.817  17.752  1.00  0.00    -0.240 OA
ATOM     24  O   UNL     1      22.579   8.798  18.050  1.00  0.00    -0.240 OA
ENDBRANCH  19  22
ENDBRANCH  14  17
ENDBRANCH  13  14
ENDBRANCH   1  13
TORSDOF 8
ENDMDL
MODEL 17
REMARK VINA RESULT:    -6.665      2.651      3.789
REMARK INTER + INTRA:         -10.715
REMARK INTER:                  -9.896
REMARK INTRA:                  -0.819
REMARK UNBOUND:                -0.934
REMARK SMILES O=S(=O)(NCCCc1ccc(C(:O):O)cc1)c1ccsc1C(:O):O
REMARK SMILES IDX 5 1 6 2 7 3 8 4 9 5 10 6 11 7 16 8 15 9 12 10 13 11 14 12
REMARK SMILES IDX 4 13 2 14 1 15 3 16 17 17 18 18 21 19 19 20 20 21 22 22
REMARK SMILES IDX 23 23 24 24
REMARK H PARENT
REMARK Flexibility Score: inf
ROOT
ATOM      1  C   UNL     1      21.913   5.232  13.923  1.00  0.00     0.011 C 
ENDROOT
BRANCH   1   2
ATOM      2  C   UNL     1      23.173   4.521  13.273  1.00  0.00    -0.035 C 
BRANCH   2   3
ATOM      3  C   UNL     1      22.881   3.608  12.039  1.00  0.00    -0.027 C 
BRANCH   3   4
ATOM      4  C   UNL     1      22.891   4.451  10.747  1.00  0.00    -0.048 A 
ATOM      5  C   UNL     1      23.519   5.711  10.559  1.00  0.00    -0.058 A 
ATOM      6  C   UNL     1      23.476   6.398   9.310  1.00  0.00    -0.047 A 
ATOM      7  C   UNL     1      22.768   5.775   8.256  1.00  0.00     0.064 A 
ATOM      8  C   UNL     1      22.202   3.933   9.674  1.00  0.00    -0.058 A 
ATOM      9  C   UNL     1      22.159   4.564   8.454  1.00  0.00    -0.047 A 
BRANCH   7  10
ATOM     10  C   UNL     1      22.562   6.370   6.825  1.00  0.00     0.386 C 
ATOM     11  O   UNL     1      21.595   7.175   6.691  1.00  0.00    -0.242 OA
ATOM     12  O   UNL     1      23.402   6.047   5.913  1.00  0.00    -0.242 OA
ENDBRANCH   7  10
ENDBRANCH   3   4
ENDBRANCH   2   3
ENDBRANCH   1   2
BRANCH   1  13
ATOM     13  N   UNL     1      22.160   5.642  15.336  1.00  0.00    -0.211 NA
BRANCH  13  14
ATOM     14  S   UNL     1      22.445   7.348  15.618  1.00  0.00     0.242 S 
ATOM     15  O   UNL     1      21.157   7.869  16.220  1.00  0.00    -0.207 OA
ATOM     16  O   UNL     1      22.850   8.089  14.376  1.00  0.00    -0.207 OA
BRANCH  14  17
ATOM     17  C   UNL     1      23.780   7.425  16.733  1.00  0.00     0.108 A 
ATOM     18  C   UNL     1      23.613   7.935  17.979  1.00  0.00    -0.030 A 
ATOM     19  C   UNL     1      25.088   6.951  16.477  1.00  0.00     0.137 A 
ATOM     20  C   UNL     1      24.704   7.903  18.786  1.00  0.00    -0.007 A 
ATOM     21  S   UNL     1      26.019   7.197  17.910  1.00  0.00    -0.135 S 
BRANCH  19  22
ATOM     22  C   UNL     1      25.723   6.301  15.248  1.00  0.00     0.397 C 
ATOM     23  O   UNL     1      25.909   5.053  15.380  1.00  0.00    -0.240 OA
ATOM     24  O   UNL     1      26.023   6.985  14.239  1.00  0.00    -0.240 OA
ENDBRANCH  19  22
ENDBRANCH  14  17
ENDBRANCH  13  14
ENDBRANCH   1  13
TORSDOF 8
ENDMDL
MODEL 18
REMARK VINA RESULT:    -6.623      3.511      5.106
REMARK INTER + INTRA:         -10.654
REMARK INTER:                  -9.937
REMARK INTRA:                  -0.717
REMARK UNBOUND:                -0.934
REMARK SMILES O=S(=O)(NCCCc1ccc(C(:O):O)cc1)c1ccsc1C(:O):O
REMARK SMILES IDX 5 1 6 2 7 3 8 4 9 5 10 6 11 7 16 8 15 9 12 10 13 11 14 12
REMARK SMILES IDX 4 13 2 14 1 15 3 16 17 17 18 18 21 19 19 20 20 21 22 22
REMARK SMILES IDX 23 23 24 24
REMARK H PARENT
REMARK Flexibility Score: inf
ROOT
ATOM      1  C   UNL     1      22.496   6.478  11.153  1.00  0.00     0.011 C 
ENDROOT
BRANCH   1   2
ATOM      2  C   UNL     1      23.072   5.344  10.205  1.00  0.00    -0.035 C 
BRANCH   2   3
ATOM      3  C   UNL     1      22.259   5.068   8.899  1.00  0.00    -0.027 C 
BRANCH   3   4
ATOM      4  C   UNL     1      20.995   4.248   9.231  1.00  0.00    -0.048 A 
ATOM      5  C   UNL     1      19.740   4.315   8.570  1.00  0.00    -0.058 A 
ATOM      6  C   UNL     1      18.638   3.495   8.953  1.00  0.00    -0.047 A 
ATOM      7  C   UNL     1      18.840   2.609  10.037  1.00  0.00     0.064 A 
ATOM      8  C   UNL     1      21.092   3.377  10.292  1.00  0.00    -0.058 A 
ATOM      9  C   UNL     1      20.054   2.563  10.674  1.00  0.00    -0.047 A 
BRANCH   7  10
ATOM     10  C   UNL     1      17.761   1.657  10.646  1.00  0.00     0.386 C 
ATOM     11  O   UNL     1      16.607   1.724  10.132  1.00  0.00    -0.242 OA
ATOM     12  O   UNL     1      18.125   0.849  11.571  1.00  0.00    -0.242 OA
ENDBRANCH   7  10
ENDBRANCH   3   4
ENDBRANCH   2   3
ENDBRANCH   1   2
BRANCH   1  13
ATOM     13  N   UNL     1      23.121   6.454  12.508  1.00  0.00    -0.211 NA
BRANCH  13  14
ATOM     14  S   UNL     1      22.527   5.239  13.622  1.00  0.00     0.242 S 
ATOM     15  O   UNL     1      23.118   3.933  13.134  1.00  0.00    -0.207 OA
ATOM     16  O   UNL     1      21.028   5.203  13.708  1.00  0.00    -0.207 OA
BRANCH  14  17
ATOM     17  C   UNL     1      23.131   5.699  15.188  1.00  0.00     0.108 A 
ATOM     18  C   UNL     1      22.284   6.115  16.163  1.00  0.00    -0.030 A 
ATOM     19  C   UNL     1      24.487   5.650  15.589  1.00  0.00     0.137 A 
ATOM     20  C   UNL     1      22.851   6.402  17.362  1.00  0.00    -0.007 A 
ATOM     21  S   UNL     1      24.558   6.143  17.241  1.00  0.00    -0.135 S 
BRANCH  19  22
ATOM     22  C   UNL     1      25.762   5.243  14.851  1.00  0.00     0.397 C 
ATOM     23  O   UNL     1      26.047   4.014  14.981  1.00  0.00    -0.240 OA
ATOM     24  O   UNL     1      26.430   6.087  14.204  1.00  0.00    -0.240 OA
ENDBRANCH  19  22
ENDBRANCH  14  17
ENDBRANCH  13  14
ENDBRANCH   1  13
TORSDOF 8
ENDMDL
MODEL 19
REMARK VINA RESULT:    -6.586      3.394      8.873
REMARK INTER + INTRA:         -10.600
REMARK INTER:                  -9.805
REMARK INTRA:                  -0.795
REMARK UNBOUND:                -0.934
REMARK SMILES O=S(=O)(NCCCc1ccc(C(:O):O)cc1)c1ccsc1C(:O):O
REMARK SMILES IDX 5 1 6 2 7 3 8 4 9 5 10 6 11 7 16 8 15 9 12 10 13 11 14 12
REMARK SMILES IDX 4 13 2 14 1 15 3 16 17 17 18 18 21 19 19 20 20 21 22 22
REMARK SMILES IDX 23 23 24 24
REMARK H PARENT
REMARK Flexibility Score: inf
ROOT
ATOM      1  C   UNL     1      22.084   7.036  14.256  1.00  0.00     0.011 C 
ENDROOT
BRANCH   1   2
ATOM      2  C   UNL     1      23.544   6.737  14.798  1.00  0.00    -0.035 C 
BRANCH   2   3
ATOM      3  C   UNL     1      24.201   7.871  15.649  1.00  0.00    -0.027 C 
BRANCH   3   4
ATOM      4  C   UNL     1      24.797   7.280  16.943  1.00  0.00    -0.048 A 
ATOM      5  C   UNL     1      24.743   5.924  17.361  1.00  0.00    -0.058 A 
ATOM      6  C   UNL     1      25.344   5.483  18.577  1.00  0.00    -0.047 A 
ATOM      7  C   UNL     1      25.996   6.460  19.365  1.00  0.00     0.064 A 
ATOM      8  C   UNL     1      25.429   8.166  17.785  1.00  0.00    -0.058 A 
ATOM      9  C   UNL     1      26.032   7.768  18.954  1.00  0.00    -0.047 A 
BRANCH   7  10
ATOM     10  C   UNL     1      26.682   6.205  20.746  1.00  0.00     0.386 C 
ATOM     11  O   UNL     1      27.848   5.715  20.706  1.00  0.00    -0.242 OA
ATOM     12  O   UNL     1      26.049   6.551  21.805  1.00  0.00    -0.242 OA
ENDBRANCH   7  10
ENDBRANCH   3   4
ENDBRANCH   2   3
ENDBRANCH   1   2
BRANCH   1  13
ATOM     13  N   UNL     1      22.085   8.025  13.140  1.00  0.00    -0.211 NA
BRANCH  13  14
ATOM     14  S   UNL     1      21.085   7.642  11.752  1.00  0.00     0.242 S 
ATOM     15  O   UNL     1      21.585   8.545  10.644  1.00  0.00    -0.207 OA
ATOM     16  O   UNL     1      19.617   7.809  12.022  1.00  0.00    -0.207 OA
BRANCH  14  17
ATOM     17  C   UNL     1      21.368   5.958  11.418  1.00  0.00     0.108 A 
ATOM     18  C   UNL     1      20.385   5.041  11.596  1.00  0.00    -0.030 A 
ATOM     19  C   UNL     1      22.575   5.415  10.916  1.00  0.00     0.137 A 
ATOM     20  C   UNL     1      20.694   3.763  11.259  1.00  0.00    -0.007 A 
ATOM     21  S   UNL     1      22.329   3.720  10.696  1.00  0.00    -0.135 S 
BRANCH  19  22
ATOM     22  C   UNL     1      23.918   6.051  10.558  1.00  0.00     0.397 C 
ATOM     23  O   UNL     1      24.718   6.120  11.540  1.00  0.00    -0.240 OA
ATOM     24  O   UNL     1      24.148   6.460   9.394  1.00  0.00    -0.240 OA
ENDBRANCH  19  22
ENDBRANCH  14  17
ENDBRANCH  13  14
ENDBRANCH   1  13
TORSDOF 8
ENDMDL
MODEL 20
REMARK VINA RESULT:    -6.533      5.749      7.971
REMARK INTER + INTRA:         -10.522
REMARK INTER:                  -9.588
REMARK INTRA:                  -0.934
REMARK UNBOUND:                -0.934
REMARK SMILES O=S(=O)(NCCCc1ccc(C(:O):O)cc1)c1ccsc1C(:O):O
REMARK SMILES IDX 5 1 6 2 7 3 8 4 9 5 10 6 11 7 16 8 15 9 12 10 13 11 14 12
REMARK SMILES IDX 4 13 2 14 1 15 3 16 17 17 18 18 21 19 19 20 20 21 22 22
REMARK SMILES IDX 23 23 24 24
REMARK H PARENT
REMARK Flexibility Score: inf
ROOT
ATOM      1  C   UNL     1      21.272   9.575  18.163  1.00  0.00     0.011 C 
ENDROOT
BRANCH   1   2
ATOM      2  C   UNL     1      21.912   9.094  16.794  1.00  0.00    -0.035 C 
BRANCH   2   3
ATOM      3  C   UNL     1      22.391   7.607  16.750  1.00  0.00    -0.027 C 
BRANCH   3   4
ATOM      4  C   UNL     1      23.565   7.404  17.729  1.00  0.00    -0.048 A 
ATOM      5  C   UNL     1      24.750   8.184  17.810  1.00  0.00    -0.058 A 
ATOM      6  C   UNL     1      25.769   7.913  18.769  1.00  0.00    -0.047 A 
ATOM      7  C   UNL     1      25.559   6.820  19.643  1.00  0.00     0.064 A 
ATOM      8  C   UNL     1      23.458   6.345  18.601  1.00  0.00    -0.058 A 
ATOM      9  C   UNL     1      24.416   6.070  19.547  1.00  0.00    -0.047 A 
BRANCH   7  10
ATOM     10  C   UNL     1      26.560   6.325  20.736  1.00  0.00     0.386 C 
ATOM     11  O   UNL     1      27.532   5.627  20.324  1.00  0.00    -0.242 OA
ATOM     12  O   UNL     1      26.362   6.697  21.945  1.00  0.00    -0.242 OA
ENDBRANCH   7  10
ENDBRANCH   3   4
ENDBRANCH   2   3
ENDBRANCH   1   2
BRANCH   1  13
ATOM     13  N   UNL     1      19.801   9.332  18.216  1.00  0.00    -0.211 NA
BRANCH  13  14
ATOM     14  S   UNL     1      19.229   8.268  19.487  1.00  0.00     0.242 S 
ATOM     15  O   UNL     1      20.193   7.099  19.486  1.00  0.00    -0.207 OA
ATOM     16  O   UNL     1      17.800   7.844  19.299  1.00  0.00    -0.207 OA
BRANCH  14  17
ATOM     17  C   UNL     1      19.312   9.199  20.955  1.00  0.00     0.108 A 
ATOM     18  C   UNL     1      19.171  10.548  20.928  1.00  0.00    -0.030 A 
ATOM     19  C   UNL     1      19.484   8.665  22.254  1.00  0.00     0.137 A 
ATOM     20  C   UNL     1      19.202  11.173  22.133  1.00  0.00    -0.007 A 
ATOM     21  S   UNL     1      19.434   9.983  23.367  1.00  0.00    -0.135 S 
BRANCH  19  22
ATOM     22  C   UNL     1      19.666   7.235  22.760  1.00  0.00     0.397 C 
ATOM     23  O   UNL     1      18.700   6.469  22.461  1.00  0.00    -0.240 OA
ATOM     24  O   UNL     1      20.686   6.907  23.415  1.00  0.00    -0.240 OA
ENDBRANCH  19  22
ENDBRANCH  14  17
ENDBRANCH  13  14
ENDBRANCH   1  13
TORSDOF 8
ENDMDL
