REMARK SMILES O=S(=O)(NCCCc1ccc(C(:O):O)cc1)c1ccsc1C(:O):O
REMARK SMILES IDX 5 1 6 2 7 3 8 4 9 5 10 6 11 7 16 8 15 9 12 10 13 11 14 12
REMARK SMILES IDX 4 13 2 14 1 15 3 16 17 17 18 18 21 19 19 20 20 21 22 22
REMARK SMILES IDX 23 23 24 24
REMARK H PARENT
REMARK Flexibility Score: inf
ROOT
ATOM      1  C   UNL     1      23.265   5.134  13.483  1.00  0.00     0.011 C 
ENDROOT
BRANCH   1   2
ATOM      2  C   UNL     1      23.403   4.215  12.198  1.00  0.00    -0.035 C 
BRANCH   2   3
ATOM      3  C   UNL     1      23.093   4.903  10.830  1.00  0.00    -0.027 C 
BRANCH   3   4
ATOM      4  C   UNL     1      21.819   4.293  10.211  1.00  0.00    -0.048 A 
ATOM      5  C   UNL     1      21.544   4.122   8.828  1.00  0.00    -0.058 A 
ATOM      6  C   UNL     1      20.332   3.529   8.366  1.00  0.00    -0.047 A 
ATOM      7  C   UNL     1      19.398   3.122   9.347  1.00  0.00     0.064 A 
ATOM      8  C   UNL     1      20.842   3.893  11.093  1.00  0.00    -0.058 A 
ATOM      9  C   UNL     1      19.673   3.303  10.678  1.00  0.00    -0.047 A 
BRANCH   7  10
ATOM     10  C   UNL     1      17.997   2.492   9.062  1.00  0.00     0.386 C 
ATOM     11  O   UNL     1      17.445   1.899  10.034  1.00  0.00    -0.242 OA
ATOM     12  O   UNL     1      17.487   2.661   7.899  1.00  0.00    -0.242 OA
ENDBRANCH   7  10
ENDBRANCH   3   4
ENDBRANCH   2   3
ENDBRANCH   1   2
BRANCH   1  13
ATOM     13  N   UNL     1      24.323   4.853  14.497  1.00  0.00    -0.211 NA
BRANCH  13  14
ATOM     14  S   UNL     1      25.633   6.012  14.605  1.00  0.00     0.242 S 
ATOM     15  O   UNL     1      25.592   6.776  13.298  1.00  0.00    -0.207 OA
ATOM     16  O   UNL     1      26.966   5.369  14.862  1.00  0.00    -0.207 OA
BRANCH  14  17
ATOM     17  C   UNL     1      25.262   7.017  15.976  1.00  0.00     0.108 A 
ATOM     18  C   UNL     1      25.149   8.362  15.839  1.00  0.00    -0.030 A 
ATOM     19  C   UNL     1      25.015   6.551  17.289  1.00  0.00     0.137 A 
ATOM     20  C   UNL     1      24.808   9.047  16.960  1.00  0.00    -0.007 A 
ATOM     21  S   UNL     1      24.633   7.923  18.264  1.00  0.00    -0.135 S 
BRANCH  19  22
ATOM     22  C   UNL     1      25.018   5.149  17.899  1.00  0.00     0.397 C 
ATOM     23  O   UNL     1      24.699   5.136  19.127  1.00  0.00    -0.240 OA
ATOM     24  O   UNL     1      25.326   4.146  17.210  1.00  0.00    -0.240 OA
ENDBRANCH  19  22
ENDBRANCH  14  17
ENDBRANCH  13  14
ENDBRANCH   1  13
TORSDOF 8
