REMARK SMILES C=CCOC(=O)C1=CS[C@H]2[C@@H]([C@@H](C)OC(C)=O)C(=O)N12
REMARK SMILES IDX 9 1 19 2 20 3 11 4 10 5 18 6 7 7 8 8 12 9 13 10 14 11 15 12
REMARK SMILES IDX 17 13 16 14 5 15 6 16 4 17 3 18 2 19 1 20
REMARK H PARENT
REMARK Flexibility Score: inf
ROOT
ATOM      1  S   UNL     1      71.361  13.719  84.244  1.00  0.00    -0.105 SA
ATOM      2  O   UNL     1      74.756  15.025  86.917  1.00  0.00    -0.274 OA
ATOM      3  N   UNL     1      73.048  13.529  86.266  1.00  0.00    -0.291 N 
ATOM      4  C   UNL     1      74.203  14.049  84.616  1.00  0.00     0.153 C 
ATOM      5  C   UNL     1      72.994  13.126  84.848  1.00  0.00     0.169 C 
ATOM      6  C   UNL     1      74.156  14.318  86.140  1.00  0.00     0.238 C 
ATOM      7  C   UNL     1      71.842  13.944  86.762  1.00  0.00     0.137 C 
ATOM      8  C   UNL     1      70.849  14.066  85.872  1.00  0.00     0.077 C 
ENDROOT
BRANCH   4   9
ATOM      9  C   UNL     1      73.925  15.262  83.760  1.00  0.00     0.189 C 
ATOM     10  C   UNL     1      73.871  16.531  84.604  1.00  0.00     0.054 C 
BRANCH   9  11
ATOM     11  O   UNL     1      74.954  15.398  82.780  1.00  0.00    -0.462 OA
BRANCH  11  12
ATOM     12  C   UNL     1      74.844  16.479  81.955  1.00  0.00     0.302 C 
ATOM     13  O   UNL     1      74.400  16.479  80.816  1.00  0.00    -0.253 OA
ATOM     14  C   UNL     1      75.352  17.702  82.657  1.00  0.00     0.139 C 
ENDBRANCH  11  12
ENDBRANCH   9  11
ENDBRANCH   4   9
BRANCH   7  15
ATOM     15  C   UNL     1      71.685  14.308  88.163  1.00  0.00     0.355 C 
ATOM     16  O   UNL     1      71.755  15.457  88.584  1.00  0.00    -0.244 OA
BRANCH  15  17
ATOM     17  O   UNL     1      71.454  13.182  88.890  1.00  0.00    -0.457 OA
BRANCH  17  18
ATOM     18  C   UNL     1      70.976  13.390  90.223  1.00  0.00     0.260 C 
BRANCH  18  19
ATOM     19  C   UNL     1      72.138  13.369  91.159  1.00  0.00     0.006 C 
ATOM     20  C   UNL     1      72.386  12.375  92.020  1.00  0.00     0.007 C 
ENDBRANCH  18  19
ENDBRANCH  17  18
ENDBRANCH  15  17
ENDBRANCH   7  15
TORSDOF 7
BEGIN_RES SER A  90
REMARK  2 active torsions:
REMARK  status: ('A' for Active; 'I' for Inactive)
REMARK    1  A    between atoms: CA   and  CB  
REMARK    2  A    between atoms: CB   and  OG  
ROOT
ATOM      1  CA  SER A  90      64.797  27.426  83.208  1.00 28.94     0.292 C 
ENDROOT
BRANCH   1   2
ATOM      2  CB  SER A  90      64.021  26.161  83.621  1.00 29.63     0.194 C 
BRANCH   2   3
ATOM      3  OG  SER A  90      64.781  25.308  84.459  1.00 30.29    -0.550 OA
ATOM      4  HG  SER A  90      64.303  24.528  84.714  1.00  0.00     0.310 HD
ENDBRANCH   2   3
ENDBRANCH   1   2
END_RES SER A  90
BEGIN_RES SER A  88
REMARK  2 active torsions:
REMARK  status: ('A' for Active; 'I' for Inactive)
REMARK    3  A    between atoms: CA   and  CB  
REMARK    4  A    between atoms: CB   and  OG  
ROOT
ATOM      5  CA  SER A  88      69.162  24.022  82.855  1.00 38.41     0.292 C 
ENDROOT
BRANCH   5   6
ATOM      6  CB  SER A  88      67.754  23.445  82.669  1.00 37.99     0.194 C 
BRANCH   6   7
ATOM      7  OG  SER A  88      66.762  24.442  82.826  1.00 37.76    -0.550 OA
ATOM      8  HG  SER A  88      65.889  24.085  82.711  1.00  0.00     0.310 HD
ENDBRANCH   6   7
ENDBRANCH   5   6
END_RES SER A  88
BEGIN_RES TYR A 143
REMARK  3 active torsions:
REMARK  status: ('A' for Active; 'I' for Inactive)
REMARK    5  A    between atoms: CA   and  CB  
REMARK    6  A    between atoms: CB   and  CG  
REMARK    7  A    between atoms: CZ   and  OH  
ROOT
ATOM      9  CA  TYR A 143      64.264  20.095  89.524  1.00 42.38     0.245 C 
ENDROOT
BRANCH   9  10
ATOM     10  CB  TYR A 143      62.885  20.126  88.852  1.00 47.73     0.022 C 
BRANCH  10  11
ATOM     11  CG  TYR A 143      62.823  19.522  87.470  1.00 52.08    -0.001 A 
ATOM     12  CD1 TYR A 143      63.850  19.721  86.549  1.00 55.58    -0.035 A 
ATOM     13  CE1 TYR A 143      63.802  19.143  85.277  1.00 58.22     0.100 A 
ATOM     14  CZ  TYR A 143      62.714  18.360  84.924  1.00 60.58    -0.121 A 
ATOM     15  CE2 TYR A 143      61.681  18.152  85.824  1.00 60.07     0.100 A 
ATOM     16  CD2 TYR A 143      61.743  18.733  87.089  1.00 56.72    -0.035 A 
BRANCH  14  17
ATOM     17  OH  TYR A 143      62.653  17.779  83.675  1.00 63.91    -0.368 OA
ATOM     18  HH  TYR A 143      61.908  17.242  83.433  1.00  0.00     0.339 HD
ENDBRANCH  14  17
ENDBRANCH  10  11
ENDBRANCH   9  10
END_RES TYR A 143
BEGIN_RES LYS A 145
REMARK  5 active torsions:
REMARK  status: ('A' for Active; 'I' for Inactive)
REMARK    8  A    between atoms: CA   and  CB  
REMARK    9  A    between atoms: CB   and  CG  
REMARK   10  A    between atoms: CG   and  CD  
REMARK   11  A    between atoms: CD   and  CE  
REMARK   12  A    between atoms: CE   and  NZ  
ROOT
ATOM     19  CA  LYS A 145      61.782  26.240  90.241  1.00 28.09     0.227 C 
ENDROOT
BRANCH  19  20
ATOM     20  CB  LYS A 145      60.456  25.589  89.829  1.00 28.44     0.039 C 
BRANCH  20  21
ATOM     21  CG  LYS A 145      59.572  25.138  90.979  1.00 31.62     0.053 C 
BRANCH  21  22
ATOM     22  CD  LYS A 145      59.998  25.754  92.308  1.00 34.02     0.048 C 
BRANCH  22  23
ATOM     23  CE  LYS A 145      61.509  25.661  92.472  1.00 33.58     0.218 C 
BRANCH  23  24
ATOM     24  NZ  LYS A 145      62.108  24.643  91.594  1.00 36.75    -0.272 N 
ATOM     25  HZ3 LYS A 145      61.667  23.733  91.731  1.00  0.00     0.311 HD
ATOM     26  HZ2 LYS A 145      61.853  24.801  90.619  1.00  0.00     0.311 HD
ATOM     27  HZ1 LYS A 145      63.120  24.581  91.703  1.00  0.00     0.311 HD
ENDBRANCH  23  24
ENDBRANCH  22  23
ENDBRANCH  21  22
ENDBRANCH  20  21
ENDBRANCH  19  20
END_RES LYS A 145
BEGIN_RES ALA A 279
REMARK  0 active torsions:
REMARK  status: ('A' for Active; 'I' for Inactive)
ROOT
ATOM     28  CA  ALA A 279      58.677  22.867  81.738  1.00 30.95     0.215 C 
ATOM     29  CB  ALA A 279      59.273  21.559  81.198  1.00 29.24     0.031 C 
ENDROOT
END_RES ALA A 279
