REMARK  Name = /tmp/59BH6PR
REMARK                            x       y       z     vdW  Elec       q    Type
REMARK                         _______ _______ _______ _____ _____    ______ ____
ROOT
ATOM      1  H   LIG    1        2.486  -1.094  -0.020  0.00  0.00    +0.156 HD
ATOM      2  N   LIG    1        2.936  -0.368   0.530  0.00  0.00    -0.269 N 
ATOM      3  C   LIG    1        2.346  -0.144   1.771  0.00  0.00    +0.308 C 
ATOM      4  N   LIG    1        1.092  -0.715   1.836  0.00  0.00    -0.269 N 
ATOM      5  H   LIG    1        0.672  -1.016   0.968  0.00  0.00    +0.156 HD
ATOM      6  O   LIG    1        2.917   0.478   2.660  0.00  0.00    -0.252 OA
ENDROOT
BRANCH   2   7
ATOM      7  C   LIG    1        4.210   0.082   0.134  0.00  0.00    +0.037 A 
ATOM      8  C   LIG    1        4.258   1.227  -0.702  0.00  0.00    +0.026 A 
ATOM      9  C   LIG    1        5.471   1.704  -1.219  0.00  0.00    +0.037 A 
ATOM     10  C   LIG    1        6.602   1.016  -0.852  0.00  0.00    +0.115 A 
ATOM     11  C   LIG    1        6.572  -0.061  -0.015  0.00  0.00    +0.117 A 
ATOM     12  O   LIG    1        7.731  -0.454   0.151  0.00  0.00    -0.255 OA
ATOM     13  C   LIG    1        8.422   0.326  -0.566  0.00  0.00    +0.498 C 
ATOM     14  F   LIG    1        9.075  -0.409  -1.482  0.00  0.00    -0.147 F 
ATOM     15  F   LIG    1        9.337   0.923   0.216  0.00  0.00    -0.147 F 
ATOM     16  O   LIG    1        7.778   1.227  -1.173  0.00  0.00    -0.255 OA
ATOM     17  C   LIG    1        5.403  -0.559   0.513  0.00  0.00    +0.059 A 
ENDBRANCH   2   7
BRANCH   4  18
ATOM     18  C   LIG    1        0.222  -0.738   2.947  0.00  0.00    +0.035 A 
ATOM     19  C   LIG    1       -0.797   0.219   2.976  0.00  0.00    +0.025 A 
ATOM     20  C   LIG    1       -1.684   0.280   4.052  0.00  0.00    +0.022 A 
ATOM     21  C   LIG    1       -1.577  -0.628   5.107  0.00  0.00    +0.053 A 
ATOM     22  C   LIG    1       -0.580  -1.609   5.092  0.00  0.00    +0.075 A 
ATOM     23 CL   LIG    1       -2.710  -0.485   6.398  0.00  0.00    -0.083 Cl
ATOM     24  C   LIG    1        0.315  -1.654   3.998  0.00  0.00    +0.037 A 
BRANCH  22  25
ATOM     25  C   LIG    1       -0.445  -2.603   6.217  0.00  0.00    +0.419 C 
ATOM     26  F   LIG    1       -1.550  -3.377   6.383  0.00  0.00    -0.166 F 
ATOM     27  F   LIG    1       -0.189  -2.016   7.416  0.00  0.00    -0.166 F 
ATOM     28  F   LIG    1        0.583  -3.481   6.020  0.00  0.00    -0.166 F 
ENDBRANCH  22  25
ENDBRANCH   4  18
TORSDOF 3                                   
