MODEL 1
REMARK VINA RESULT:    -8.390      0.000      0.000
REMARK INTER + INTRA:         -10.225
REMARK INTER:                  -9.647
REMARK INTRA:                  -0.579
REMARK UNBOUND:                -0.364
REMARK  Name = /tmp/59BH6PR
REMARK                            x       y       z     vdW  Elec       q    Type
REMARK                         _______ _______ _______ _____ _____    ______ ____
ROOT
ATOM      1  H   LIG    1       -6.493  -0.660  -1.650  0.00  0.00    +0.156 HD
ATOM      2  N   LIG    1       -7.444  -0.991  -1.779  0.00  0.00    -0.269 N 
ATOM      3  C   LIG    1       -7.577  -2.377  -1.736  0.00  0.00    +0.308 C 
ATOM      4  N   LIG    1       -6.351  -2.997  -1.866  0.00  0.00    -0.269 N 
ATOM      5  H   LIG    1       -5.575  -2.434  -2.183  0.00  0.00    +0.156 HD
ATOM      6  O   LIG    1       -8.664  -2.922  -1.588  0.00  0.00    -0.252 OA
ENDROOT
BRANCH   2   7
ATOM      7  C   LIG    1       -8.498  -0.063  -1.677  0.00  0.00    +0.037 A 
ATOM      8  C   LIG    1       -9.011   0.464  -2.890  0.00  0.00    +0.026 A 
ATOM      9  C   LIG    1      -10.002   1.456  -2.894  0.00  0.00    +0.037 A 
ATOM     10  C   LIG    1      -10.459   1.866  -1.665  0.00  0.00    +0.115 A 
ATOM     11  C   LIG    1      -10.004   1.335  -0.494  0.00  0.00    +0.117 A 
ATOM     12  O   LIG    1      -10.608   1.877   0.437  0.00  0.00    -0.255 OA
ATOM     13  C   LIG    1      -11.370   2.708  -0.138  0.00  0.00    +0.498 C 
ATOM     14  F   LIG    1      -11.063   3.939   0.305  0.00  0.00    -0.147 F 
ATOM     15  F   LIG    1      -12.637   2.441   0.221  0.00  0.00    -0.147 F 
ATOM     16  O   LIG    1      -11.314   2.719  -1.400  0.00  0.00    -0.255 OA
ATOM     17  C   LIG    1       -9.033   0.361  -0.448  0.00  0.00    +0.059 A 
ENDBRANCH   2   7
BRANCH   4  18
ATOM     18  C   LIG    1       -6.087  -4.383  -1.818  0.00  0.00    +0.035 A 
ATOM     19  C   LIG    1       -6.041  -4.977  -0.553  0.00  0.00    +0.025 A 
ATOM     20  C   LIG    1       -5.760  -6.339  -0.418  0.00  0.00    +0.022 A 
ATOM     21  C   LIG    1       -5.541  -7.129  -1.547  0.00  0.00    +0.053 A 
ATOM     22  C   LIG    1       -5.602  -6.563  -2.825  0.00  0.00    +0.075 A 
ATOM     23 CL   LIG    1       -5.198  -8.800  -1.294  0.00  0.00    -0.083 Cl
ATOM     24  C   LIG    1       -5.880  -5.182  -2.946  0.00  0.00    +0.037 A 
BRANCH  22  25
ATOM     25  C   LIG    1       -5.370  -7.395  -4.060  0.00  0.00    +0.419 C 
ATOM     26  F   LIG    1       -6.239  -8.435  -4.175  0.00  0.00    -0.166 F 
ATOM     27  F   LIG    1       -4.117  -7.918  -4.121  0.00  0.00    -0.166 F 
ATOM     28  F   LIG    1       -5.517  -6.675  -5.211  0.00  0.00    -0.166 F 
ENDBRANCH  22  25
ENDBRANCH   4  18
TORSDOF 3                                   
ENDMDL
MODEL 2
REMARK VINA RESULT:    -8.275      0.833      1.677
REMARK INTER + INTRA:         -10.090
REMARK INTER:                  -9.676
REMARK INTRA:                  -0.413
REMARK UNBOUND:                -0.364
REMARK  Name = /tmp/59BH6PR
REMARK                            x       y       z     vdW  Elec       q    Type
REMARK                         _______ _______ _______ _____ _____    ______ ____
ROOT
ATOM      1  H   LIG    1       -6.142  -0.558  -1.171  0.00  0.00    +0.156 HD
ATOM      2  N   LIG    1       -7.120  -0.816  -1.075  0.00  0.00    -0.269 N 
ATOM      3  C   LIG    1       -7.349  -2.189  -1.055  0.00  0.00    +0.308 C 
ATOM      4  N   LIG    1       -6.245  -2.883  -1.508  0.00  0.00    -0.269 N 
ATOM      5  H   LIG    1       -5.526  -2.356  -1.984  0.00  0.00    +0.156 HD
ATOM      6  O   LIG    1       -8.408  -2.667  -0.666  0.00  0.00    -0.252 OA
ENDROOT
BRANCH   2   7
ATOM      7  C   LIG    1       -8.040   0.174  -0.680  0.00  0.00    +0.037 A 
ATOM      8  C   LIG    1       -7.746   0.888   0.510  0.00  0.00    +0.026 A 
ATOM      9  C   LIG    1       -8.638   1.834   1.035  0.00  0.00    +0.037 A 
ATOM     10  C   LIG    1       -9.794   2.042   0.322  0.00  0.00    +0.115 A 
ATOM     11  C   LIG    1      -10.068   1.392  -0.845  0.00  0.00    +0.117 A 
ATOM     12  O   LIG    1      -11.156   1.797  -1.267  0.00  0.00    -0.255 OA
ATOM     13  C   LIG    1      -11.531   2.628  -0.391  0.00  0.00    +0.498 C 
ATOM     14  F   LIG    1      -12.704   2.208   0.113  0.00  0.00    -0.147 F 
ATOM     15  F   LIG    1      -11.737   3.813  -0.990  0.00  0.00    -0.147 F 
ATOM     16  O   LIG    1      -10.732   2.807   0.571  0.00  0.00    -0.255 OA
ATOM     17  C   LIG    1       -9.218   0.458  -1.392  0.00  0.00    +0.059 A 
ENDBRANCH   2   7
BRANCH   4  18
ATOM     18  C   LIG    1       -6.089  -4.284  -1.581  0.00  0.00    +0.035 A 
ATOM     19  C   LIG    1       -6.087  -4.987  -0.372  0.00  0.00    +0.025 A 
ATOM     20  C   LIG    1       -5.912  -6.372  -0.357  0.00  0.00    +0.022 A 
ATOM     21  C   LIG    1       -5.757  -7.077  -1.552  0.00  0.00    +0.053 A 
ATOM     22  C   LIG    1       -5.776  -6.400  -2.775  0.00  0.00    +0.075 A 
ATOM     23 CL   LIG    1       -5.544  -8.785  -1.446  0.00  0.00    -0.083 Cl
ATOM     24  C   LIG    1       -5.947  -4.996  -2.775  0.00  0.00    +0.037 A 
BRANCH  22  25
ATOM     25  C   LIG    1       -5.612  -7.138  -4.079  0.00  0.00    +0.419 C 
ATOM     26  F   LIG    1       -5.662  -6.322  -5.166  0.00  0.00    -0.166 F 
ATOM     27  F   LIG    1       -6.551  -8.103  -4.265  0.00  0.00    -0.166 F 
ATOM     28  F   LIG    1       -4.411  -7.783  -4.168  0.00  0.00    -0.166 F 
ENDBRANCH  22  25
ENDBRANCH   4  18
TORSDOF 3                                   
ENDMDL
MODEL 3
REMARK VINA RESULT:    -8.041      3.775      9.699
REMARK INTER + INTRA:          -9.815
REMARK INTER:                  -9.278
REMARK INTRA:                  -0.537
REMARK UNBOUND:                -0.364
REMARK  Name = /tmp/59BH6PR
REMARK                            x       y       z     vdW  Elec       q    Type
REMARK                         _______ _______ _______ _____ _____    ______ ____
ROOT
ATOM      1  H   LIG    1       -4.784  -4.645  -2.509  0.00  0.00    +0.156 HD
ATOM      2  N   LIG    1       -5.522  -5.127  -2.004  0.00  0.00    -0.269 N 
ATOM      3  C   LIG    1       -6.501  -4.285  -1.482  0.00  0.00    +0.308 C 
ATOM      4  N   LIG    1       -6.074  -2.973  -1.475  0.00  0.00    -0.269 N 
ATOM      5  H   LIG    1       -5.090  -2.801  -1.624  0.00  0.00    +0.156 HD
ATOM      6  O   LIG    1       -7.587  -4.706  -1.103  0.00  0.00    -0.252 OA
ENDROOT
BRANCH   2   7
ATOM      7  C   LIG    1       -5.635  -6.523  -2.151  0.00  0.00    +0.037 A 
ATOM      8  C   LIG    1       -5.287  -7.318  -1.029  0.00  0.00    +0.026 A 
ATOM      9  C   LIG    1       -5.284  -8.718  -1.098  0.00  0.00    +0.037 A 
ATOM     10  C   LIG    1       -5.657  -9.270  -2.300  0.00  0.00    +0.115 A 
ATOM     11  C   LIG    1       -6.034  -8.515  -3.372  0.00  0.00    +0.117 A 
ATOM     12  O   LIG    1       -6.335  -9.279  -4.295  0.00  0.00    -0.255 OA
ATOM     13  C   LIG    1       -6.127 -10.431  -3.816  0.00  0.00    +0.498 C 
ATOM     14  F   LIG    1       -5.205 -11.044  -4.577  0.00  0.00    -0.147 F 
ATOM     15  F   LIG    1       -7.268 -11.136  -3.897  0.00  0.00    -0.147 F 
ATOM     16  O   LIG    1       -5.731 -10.462  -2.617  0.00  0.00    -0.255 OA
ATOM     17  C   LIG    1       -6.051  -7.140  -3.344  0.00  0.00    +0.059 A 
ENDBRANCH   2   7
BRANCH   4  18
ATOM     18  C   LIG    1       -6.810  -1.839  -1.067  0.00  0.00    +0.035 A 
ATOM     19  C   LIG    1       -6.709  -1.465   0.277  0.00  0.00    +0.025 A 
ATOM     20  C   LIG    1       -7.425  -0.371   0.765  0.00  0.00    +0.022 A 
ATOM     21  C   LIG    1       -8.239   0.378  -0.088  0.00  0.00    +0.053 A 
ATOM     22  C   LIG    1       -8.341   0.037  -1.441  0.00  0.00    +0.075 A 
ATOM     23 CL   LIG    1       -9.091   1.712   0.594  0.00  0.00    -0.083 Cl
ATOM     24  C   LIG    1       -7.615  -1.078  -1.919  0.00  0.00    +0.037 A 
BRANCH  22  25
ATOM     25  C   LIG    1       -9.211   0.830  -2.382  0.00  0.00    +0.419 C 
ATOM     26  F   LIG    1       -9.371   0.233  -3.593  0.00  0.00    -0.166 F 
ATOM     27  F   LIG    1       -8.736   2.082  -2.617  0.00  0.00    -0.166 F 
ATOM     28  F   LIG    1      -10.476   1.010  -1.899  0.00  0.00    -0.166 F 
ENDBRANCH  22  25
ENDBRANCH   4  18
TORSDOF 3                                   
ENDMDL
MODEL 4
REMARK VINA RESULT:    -7.831      3.391      4.506
REMARK INTER + INTRA:          -9.569
REMARK INTER:                  -9.032
REMARK INTRA:                  -0.537
REMARK UNBOUND:                -0.364
REMARK  Name = /tmp/59BH6PR
REMARK                            x       y       z     vdW  Elec       q    Type
REMARK                         _______ _______ _______ _____ _____    ______ ____
ROOT
ATOM      1  H   LIG    1      -11.061  -0.047  -1.034  0.00  0.00    +0.156 HD
ATOM      2  N   LIG    1      -10.347   0.602  -0.716  0.00  0.00    -0.269 N 
ATOM      3  C   LIG    1       -9.071   0.050  -0.631  0.00  0.00    +0.308 C 
ATOM      4  N   LIG    1       -9.123  -1.328  -0.671  0.00  0.00    -0.269 N 
ATOM      5  H   LIG    1      -10.023  -1.765  -0.538  0.00  0.00    +0.156 HD
ATOM      6  O   LIG    1       -8.066   0.746  -0.544  0.00  0.00    -0.252 OA
ENDROOT
BRANCH   2   7
ATOM      7  C   LIG    1      -10.648   1.977  -0.702  0.00  0.00    +0.037 A 
ATOM      8  C   LIG    1      -10.612   2.631   0.557  0.00  0.00    +0.026 A 
ATOM      9  C   LIG    1      -10.977   3.978   0.691  0.00  0.00    +0.037 A 
ATOM     10  C   LIG    1      -11.346   4.627  -0.461  0.00  0.00    +0.115 A 
ATOM     11  C   LIG    1      -11.344   4.020  -1.683  0.00  0.00    +0.117 A 
ATOM     12  O   LIG    1      -11.696   4.850  -2.527  0.00  0.00    -0.255 OA
ATOM     13  C   LIG    1      -11.923   5.894  -1.851  0.00  0.00    +0.498 C 
ATOM     14  F   LIG    1      -13.208   6.243  -2.031  0.00  0.00    -0.147 F 
ATOM     15  F   LIG    1      -11.153   6.886  -2.330  0.00  0.00    -0.147 F 
ATOM     16  O   LIG    1      -11.713   5.799  -0.609  0.00  0.00    -0.255 OA
ATOM     17  C   LIG    1      -10.993   2.701  -1.856  0.00  0.00    +0.059 A 
ENDBRANCH   2   7
BRANCH   4  18
ATOM     18  C   LIG    1       -8.030  -2.223  -0.659  0.00  0.00    +0.035 A 
ATOM     19  C   LIG    1       -7.447  -2.528  -1.893  0.00  0.00    +0.025 A 
ATOM     20  C   LIG    1       -6.379  -3.424  -1.971  0.00  0.00    +0.022 A 
ATOM     21  C   LIG    1       -5.867  -4.014  -0.813  0.00  0.00    +0.053 A 
ATOM     22  C   LIG    1       -6.420  -3.709   0.435  0.00  0.00    +0.075 A 
ATOM     23 CL   LIG    1       -4.549  -5.110  -0.995  0.00  0.00    -0.083 Cl
ATOM     24  C   LIG    1       -7.505  -2.805   0.497  0.00  0.00    +0.037 A 
BRANCH  22  25
ATOM     25  C   LIG    1       -5.884  -4.331   1.699  0.00  0.00    +0.419 C 
ATOM     26  F   LIG    1       -4.549  -4.137   1.866  0.00  0.00    -0.166 F 
ATOM     27  F   LIG    1       -6.101  -5.671   1.765  0.00  0.00    -0.166 F 
ATOM     28  F   LIG    1       -6.465  -3.816   2.823  0.00  0.00    -0.166 F 
ENDBRANCH  22  25
ENDBRANCH   4  18
TORSDOF 3                                   
ENDMDL
MODEL 5
REMARK VINA RESULT:    -7.791      3.371      9.737
REMARK INTER + INTRA:          -9.521
REMARK INTER:                  -8.927
REMARK INTRA:                  -0.594
REMARK UNBOUND:                -0.364
REMARK  Name = /tmp/59BH6PR
REMARK                            x       y       z     vdW  Elec       q    Type
REMARK                         _______ _______ _______ _____ _____    ______ ____
ROOT
ATOM      1  H   LIG    1       -5.436  -2.707  -1.905  0.00  0.00    +0.156 HD
ATOM      2  N   LIG    1       -6.238  -3.231  -1.567  0.00  0.00    -0.269 N 
ATOM      3  C   LIG    1       -7.445  -2.541  -1.644  0.00  0.00    +0.308 C 
ATOM      4  N   LIG    1       -7.233  -1.192  -1.842  0.00  0.00    -0.269 N 
ATOM      5  H   LIG    1       -6.298  -0.839  -1.694  0.00  0.00    +0.156 HD
ATOM      6  O   LIG    1       -8.526  -3.109  -1.552  0.00  0.00    -0.252 OA
ENDROOT
BRANCH   2   7
ATOM      7  C   LIG    1       -6.098  -4.618  -1.368  0.00  0.00    +0.037 A 
ATOM      8  C   LIG    1       -6.045  -5.073  -0.026  0.00  0.00    +0.026 A 
ATOM      9  C   LIG    1       -5.823  -6.424   0.279  0.00  0.00    +0.037 A 
ATOM     10  C   LIG    1       -5.684  -7.275  -0.790  0.00  0.00    +0.115 A 
ATOM     11  C   LIG    1       -5.775  -6.855  -2.084  0.00  0.00    +0.117 A 
ATOM     12  O   LIG    1       -5.634  -7.837  -2.820  0.00  0.00    -0.255 OA
ATOM     13  C   LIG    1       -5.443  -8.794  -2.016  0.00  0.00    +0.498 C 
ATOM     14  F   LIG    1       -4.241  -9.334  -2.280  0.00  0.00    -0.147 F 
ATOM     15  F   LIG    1       -6.378  -9.732  -2.243  0.00  0.00    -0.147 F 
ATOM     16  O   LIG    1       -5.478  -8.495  -0.790  0.00  0.00    -0.255 OA
ATOM     17  C   LIG    1       -5.992  -5.540  -2.425  0.00  0.00    +0.059 A 
ENDBRANCH   2   7
BRANCH   4  18
ATOM     18  C   LIG    1       -8.214  -0.191  -2.019  0.00  0.00    +0.035 A 
ATOM     19  C   LIG    1       -8.603   0.092  -3.332  0.00  0.00    +0.025 A 
ATOM     20  C   LIG    1       -9.549   1.085  -3.593  0.00  0.00    +0.022 A 
ATOM     21  C   LIG    1      -10.134   1.796  -2.544  0.00  0.00    +0.053 A 
ATOM     22  C   LIG    1       -9.777   1.518  -1.220  0.00  0.00    +0.075 A 
ATOM     23 CL   LIG    1      -11.291   3.008  -2.952  0.00  0.00    -0.083 Cl
ATOM     24  C   LIG    1       -8.813   0.514  -0.971  0.00  0.00    +0.037 A 
BRANCH  22  25
ATOM     25  C   LIG    1      -10.395   2.270  -0.070  0.00  0.00    +0.419 C 
ATOM     26  F   LIG    1      -11.731   2.049   0.058  0.00  0.00    -0.166 F 
ATOM     27  F   LIG    1      -10.224   3.616  -0.162  0.00  0.00    -0.166 F 
ATOM     28  F   LIG    1       -9.856   1.920   1.135  0.00  0.00    -0.166 F 
ENDBRANCH  22  25
ENDBRANCH   4  18
TORSDOF 3                                   
ENDMDL
MODEL 6
REMARK VINA RESULT:    -7.722      3.800      9.501
REMARK INTER + INTRA:          -9.440
REMARK INTER:                  -8.944
REMARK INTRA:                  -0.495
REMARK UNBOUND:                -0.364
REMARK  Name = /tmp/59BH6PR
REMARK                            x       y       z     vdW  Elec       q    Type
REMARK                         _______ _______ _______ _____ _____    ______ ____
ROOT
ATOM      1  H   LIG    1       -5.326  -3.120  -1.870  0.00  0.00    +0.156 HD
ATOM      2  N   LIG    1       -6.133  -3.657  -1.569  0.00  0.00    -0.269 N 
ATOM      3  C   LIG    1       -7.333  -2.952  -1.603  0.00  0.00    +0.308 C 
ATOM      4  N   LIG    1       -7.108  -1.595  -1.712  0.00  0.00    -0.269 N 
ATOM      5  H   LIG    1       -6.171  -1.262  -1.539  0.00  0.00    +0.156 HD
ATOM      6  O   LIG    1       -8.421  -3.514  -1.552  0.00  0.00    -0.252 OA
ENDROOT
BRANCH   2   7
ATOM      7  C   LIG    1       -6.007  -5.055  -1.461  0.00  0.00    +0.037 A 
ATOM      8  C   LIG    1       -5.915  -5.594  -0.152  0.00  0.00    +0.026 A 
ATOM      9  C   LIG    1       -5.703  -6.963   0.062  0.00  0.00    +0.037 A 
ATOM     10  C   LIG    1       -5.613  -7.749  -1.062  0.00  0.00    +0.115 A 
ATOM     11  C   LIG    1       -5.742  -7.248  -2.324  0.00  0.00    +0.117 A 
ATOM     12  O   LIG    1       -5.640  -8.184  -3.123  0.00  0.00    -0.255 OA
ATOM     13  C   LIG    1       -5.436  -9.191  -2.387  0.00  0.00    +0.498 C 
ATOM     14  F   LIG    1       -4.252  -9.728  -2.725  0.00  0.00    -0.147 F 
ATOM     15  F   LIG    1       -6.392 -10.101  -2.639  0.00  0.00    -0.147 F 
ATOM     16  O   LIG    1       -5.425  -8.968  -1.144  0.00  0.00    -0.255 OA
ATOM     17  C   LIG    1       -5.951  -5.911  -2.575  0.00  0.00    +0.059 A 
ENDBRANCH   2   7
BRANCH   4  18
ATOM     18  C   LIG    1       -8.079  -0.576  -1.826  0.00  0.00    +0.035 A 
ATOM     19  C   LIG    1       -8.860  -0.314  -0.696  0.00  0.00    +0.025 A 
ATOM     20  C   LIG    1       -9.859   0.661  -0.733  0.00  0.00    +0.022 A 
ATOM     21  C   LIG    1      -10.079   1.401  -1.896  0.00  0.00    +0.053 A 
ATOM     22  C   LIG    1       -9.298   1.172  -3.034  0.00  0.00    +0.075 A 
ATOM     23 CL   LIG    1      -11.333   2.583  -1.861  0.00  0.00    -0.083 Cl
ATOM     24  C   LIG    1       -8.294   0.178  -2.983  0.00  0.00    +0.037 A 
BRANCH  22  25
ATOM     25  C   LIG    1       -9.514   1.960  -4.301  0.00  0.00    +0.419 C 
ATOM     26  F   LIG    1       -8.770   1.507  -5.345  0.00  0.00    -0.166 F 
ATOM     27  F   LIG    1       -9.234   3.282  -4.159  0.00  0.00    -0.166 F 
ATOM     28  F   LIG    1      -10.809   1.910  -4.733  0.00  0.00    -0.166 F 
ENDBRANCH  22  25
ENDBRANCH   4  18
TORSDOF 3                                   
ENDMDL
MODEL 7
REMARK VINA RESULT:    -7.635      2.457      3.492
REMARK INTER + INTRA:          -9.338
REMARK INTER:                  -8.825
REMARK INTRA:                  -0.513
REMARK UNBOUND:                -0.364
REMARK  Name = /tmp/59BH6PR
REMARK                            x       y       z     vdW  Elec       q    Type
REMARK                         _______ _______ _______ _____ _____    ______ ____
ROOT
ATOM      1  H   LIG    1       -8.413  -4.485  -0.772  0.00  0.00    +0.156 HD
ATOM      2  N   LIG    1       -7.511  -4.038  -0.637  0.00  0.00    -0.269 N 
ATOM      3  C   LIG    1       -6.451  -4.692  -1.259  0.00  0.00    +0.308 C 
ATOM      4  N   LIG    1       -6.807  -5.972  -1.630  0.00  0.00    -0.269 N 
ATOM      5  H   LIG    1       -7.657  -6.352  -1.240  0.00  0.00    +0.156 HD
ATOM      6  O   LIG    1       -5.367  -4.149  -1.439  0.00  0.00    -0.252 OA
ENDROOT
BRANCH   2   7
ATOM      7  C   LIG    1       -7.482  -2.722  -0.137  0.00  0.00    +0.037 A 
ATOM      8  C   LIG    1       -6.828  -2.521   1.106  0.00  0.00    +0.026 A 
ATOM      9  C   LIG    1       -6.817  -1.265   1.731  0.00  0.00    +0.037 A 
ATOM     10  C   LIG    1       -7.452  -0.246   1.063  0.00  0.00    +0.115 A 
ATOM     11  C   LIG    1       -8.047  -0.419  -0.152  0.00  0.00    +0.117 A 
ATOM     12  O   LIG    1       -8.510   0.667  -0.513  0.00  0.00    -0.255 OA
ATOM     13  C   LIG    1       -8.231   1.449   0.441  0.00  0.00    +0.498 C 
ATOM     14  F   LIG    1       -9.381   1.945   0.929  0.00  0.00    -0.147 F 
ATOM     15  F   LIG    1       -7.511   2.473  -0.046  0.00  0.00    -0.147 F 
ATOM     16  O   LIG    1       -7.587   0.936   1.399  0.00  0.00    -0.255 OA
ATOM     17  C   LIG    1       -8.080  -1.634  -0.797  0.00  0.00    +0.059 A 
ENDBRANCH   2   7
BRANCH   4  18
ATOM     18  C   LIG    1       -6.013  -6.910  -2.327  0.00  0.00    +0.035 A 
ATOM     19  C   LIG    1       -5.428  -7.931  -1.572  0.00  0.00    +0.025 A 
ATOM     20  C   LIG    1       -4.609  -8.884  -2.180  0.00  0.00    +0.022 A 
ATOM     21  C   LIG    1       -4.377  -8.840  -3.557  0.00  0.00    +0.053 A 
ATOM     22  C   LIG    1       -4.967  -7.840  -4.337  0.00  0.00    +0.075 A 
ATOM     23 CL   LIG    1       -3.352 -10.050  -4.230  0.00  0.00    -0.083 Cl
ATOM     24  C   LIG    1       -5.790  -6.878  -3.706  0.00  0.00    +0.037 A 
BRANCH  22  25
ATOM     25  C   LIG    1       -4.735  -7.771  -5.825  0.00  0.00    +0.419 C 
ATOM     26  F   LIG    1       -3.443  -7.502  -6.152  0.00  0.00    -0.166 F 
ATOM     27  F   LIG    1       -5.503  -6.833  -6.440  0.00  0.00    -0.166 F 
ATOM     28  F   LIG    1       -5.029  -8.947  -6.455  0.00  0.00    -0.166 F 
ENDBRANCH  22  25
ENDBRANCH   4  18
TORSDOF 3                                   
ENDMDL
MODEL 8
REMARK VINA RESULT:    -7.550      3.549      9.400
REMARK INTER + INTRA:          -9.238
REMARK INTER:                  -9.305
REMARK INTRA:                   0.067
REMARK UNBOUND:                -0.364
REMARK  Name = /tmp/59BH6PR
REMARK                            x       y       z     vdW  Elec       q    Type
REMARK                         _______ _______ _______ _____ _____    ______ ____
ROOT
ATOM      1  H   LIG    1       -6.030  -4.319   0.475  0.00  0.00    +0.156 HD
ATOM      2  N   LIG    1       -6.515  -4.256  -0.415  0.00  0.00    -0.269 N 
ATOM      3  C   LIG    1       -7.036  -2.995  -0.694  0.00  0.00    +0.308 C 
ATOM      4  N   LIG    1       -7.072  -2.211   0.441  0.00  0.00    -0.269 N 
ATOM      5  H   LIG    1       -6.941  -2.671   1.330  0.00  0.00    +0.156 HD
ATOM      6  O   LIG    1       -7.391  -2.672  -1.821  0.00  0.00    -0.252 OA
ENDROOT
BRANCH   2   7
ATOM      7  C   LIG    1       -6.343  -5.296  -1.348  0.00  0.00    +0.037 A 
ATOM      8  C   LIG    1       -5.655  -4.978  -2.547  0.00  0.00    +0.026 A 
ATOM      9  C   LIG    1       -5.506  -5.919  -3.576  0.00  0.00    +0.037 A 
ATOM     10  C   LIG    1       -6.040  -7.164  -3.345  0.00  0.00    +0.115 A 
ATOM     11  C   LIG    1       -6.666  -7.493  -2.179  0.00  0.00    +0.117 A 
ATOM     12  O   LIG    1       -7.018  -8.675  -2.250  0.00  0.00    -0.255 OA
ATOM     13  C   LIG    1       -6.647  -9.034  -3.405  0.00  0.00    +0.498 C 
ATOM     14  F   LIG    1       -7.733  -9.425  -4.094  0.00  0.00    -0.147 F 
ATOM     15  F   LIG    1       -5.831 -10.093  -3.279  0.00  0.00    -0.147 F 
ATOM     16  O   LIG    1       -6.047  -8.154  -4.085  0.00  0.00    -0.255 OA
ATOM     17  C   LIG    1       -6.833  -6.599  -1.147  0.00  0.00    +0.059 A 
ENDBRANCH   2   7
BRANCH   4  18
ATOM     18  C   LIG    1       -7.487  -0.864   0.535  0.00  0.00    +0.035 A 
ATOM     19  C   LIG    1       -6.824  -0.059   1.466  0.00  0.00    +0.025 A 
ATOM     20  C   LIG    1       -7.192   1.277   1.638  0.00  0.00    +0.022 A 
ATOM     21  C   LIG    1       -8.216   1.832   0.867  0.00  0.00    +0.053 A 
ATOM     22  C   LIG    1       -8.880   1.052  -0.086  0.00  0.00    +0.075 A 
ATOM     23 CL   LIG    1       -8.611   3.487   1.142  0.00  0.00    -0.083 Cl
ATOM     24  C   LIG    1       -8.501  -0.300  -0.244  0.00  0.00    +0.037 A 
BRANCH  22  25
ATOM     25  C   LIG    1       -9.987   1.628  -0.931  0.00  0.00    +0.419 C 
ATOM     26  F   LIG    1       -9.638   2.787  -1.553  0.00  0.00    -0.166 F 
ATOM     27  F   LIG    1      -11.119   1.884  -0.223  0.00  0.00    -0.166 F 
ATOM     28  F   LIG    1      -10.373   0.785  -1.934  0.00  0.00    -0.166 F 
ENDBRANCH  22  25
ENDBRANCH   4  18
TORSDOF 3                                   
ENDMDL
MODEL 9
REMARK VINA RESULT:    -7.525      2.412      3.451
REMARK INTER + INTRA:          -9.208
REMARK INTER:                  -9.272
REMARK INTRA:                   0.064
REMARK UNBOUND:                -0.364
REMARK  Name = /tmp/59BH6PR
REMARK                            x       y       z     vdW  Elec       q    Type
REMARK                         _______ _______ _______ _____ _____    ______ ____
ROOT
ATOM      1  H   LIG    1      -10.805  -0.255  -1.059  0.00  0.00    +0.156 HD
ATOM      2  N   LIG    1      -10.090   0.408  -0.774  0.00  0.00    -0.269 N 
ATOM      3  C   LIG    1       -8.795  -0.104  -0.799  0.00  0.00    +0.308 C 
ATOM      4  N   LIG    1       -8.808  -1.482  -0.878  0.00  0.00    -0.269 N 
ATOM      5  H   LIG    1       -9.682  -1.952  -0.693  0.00  0.00    +0.156 HD
ATOM      6  O   LIG    1       -7.808   0.621  -0.764  0.00  0.00    -0.252 OA
ENDROOT
BRANCH   2   7
ATOM      7  C   LIG    1      -10.431   1.772  -0.696  0.00  0.00    +0.037 A 
ATOM      8  C   LIG    1      -10.443   2.358   0.596  0.00  0.00    +0.026 A 
ATOM      9  C   LIG    1      -10.849   3.686   0.791  0.00  0.00    +0.037 A 
ATOM     10  C   LIG    1      -11.211   4.385  -0.335  0.00  0.00    +0.115 A 
ATOM     11  C   LIG    1      -11.163   3.844  -1.586  0.00  0.00    +0.117 A 
ATOM     12  O   LIG    1      -11.520   4.707  -2.394  0.00  0.00    -0.255 OA
ATOM     13  C   LIG    1      -11.792   5.707  -1.670  0.00  0.00    +0.498 C 
ATOM     14  F   LIG    1      -13.082   6.029  -1.863  0.00  0.00    -0.147 F 
ATOM     15  F   LIG    1      -11.040   6.744  -2.077  0.00  0.00    -0.147 F 
ATOM     16  O   LIG    1      -11.607   5.552  -0.430  0.00  0.00    -0.255 OA
ATOM     17  C   LIG    1      -10.770   2.546  -1.819  0.00  0.00    +0.059 A 
ENDBRANCH   2   7
BRANCH   4  18
ATOM     18  C   LIG    1       -7.691  -2.341  -0.974  0.00  0.00    +0.035 A 
ATOM     19  C   LIG    1       -6.437  -1.784  -0.704  0.00  0.00    +0.025 A 
ATOM     20  C   LIG    1       -5.280  -2.560  -0.801  0.00  0.00    +0.022 A 
ATOM     21  C   LIG    1       -5.363  -3.909  -1.153  0.00  0.00    +0.053 A 
ATOM     22  C   LIG    1       -6.607  -4.494  -1.408  0.00  0.00    +0.075 A 
ATOM     23 CL   LIG    1       -3.888  -4.796  -1.254  0.00  0.00    -0.083 Cl
ATOM     24  C   LIG    1       -7.769  -3.694  -1.311  0.00  0.00    +0.037 A 
BRANCH  22  25
ATOM     25  C   LIG    1       -6.723  -5.948  -1.787  0.00  0.00    +0.419 C 
ATOM     26  F   LIG    1       -8.009  -6.352  -1.971  0.00  0.00    -0.166 F 
ATOM     27  F   LIG    1       -6.175  -6.783  -0.865  0.00  0.00    -0.166 F 
ATOM     28  F   LIG    1       -6.084  -6.236  -2.959  0.00  0.00    -0.166 F 
ENDBRANCH  22  25
ENDBRANCH   4  18
TORSDOF 3                                   
ENDMDL
MODEL 10
REMARK VINA RESULT:    -7.505      2.163      2.702
REMARK INTER + INTRA:          -9.185
REMARK INTER:                  -8.596
REMARK INTRA:                  -0.589
REMARK UNBOUND:                -0.364
REMARK  Name = /tmp/59BH6PR
REMARK                            x       y       z     vdW  Elec       q    Type
REMARK                         _______ _______ _______ _____ _____    ______ ____
ROOT
ATOM      1  H   LIG    1       -6.610  -0.190  -1.506  0.00  0.00    +0.156 HD
ATOM      2  N   LIG    1       -7.547  -0.580  -1.521  0.00  0.00    -0.269 N 
ATOM      3  C   LIG    1       -7.595  -1.961  -1.346  0.00  0.00    +0.308 C 
ATOM      4  N   LIG    1       -6.351  -2.527  -1.530  0.00  0.00    -0.269 N 
ATOM      5  H   LIG    1       -5.638  -1.957  -1.962  0.00  0.00    +0.156 HD
ATOM      6  O   LIG    1       -8.633  -2.544  -1.056  0.00  0.00    -0.252 OA
ENDROOT
BRANCH   2   7
ATOM      7  C   LIG    1       -8.642   0.299  -1.407  0.00  0.00    +0.037 A 
ATOM      8  C   LIG    1       -9.263   0.712  -2.613  0.00  0.00    +0.026 A 
ATOM      9  C   LIG    1      -10.306   1.651  -2.613  0.00  0.00    +0.037 A 
ATOM     10  C   LIG    1      -10.700   2.124  -1.386  0.00  0.00    +0.115 A 
ATOM     11  C   LIG    1      -10.137   1.702  -0.217  0.00  0.00    +0.117 A 
ATOM     12  O   LIG    1      -10.706   2.278   0.716  0.00  0.00    -0.255 OA
ATOM     13  C   LIG    1      -11.549   3.026   0.142  0.00  0.00    +0.498 C 
ATOM     14  F   LIG    1      -11.281   4.299   0.477  0.00  0.00    -0.147 F 
ATOM     15  F   LIG    1      -12.772   2.723   0.608  0.00  0.00    -0.147 F 
ATOM     16  O   LIG    1      -11.580   2.950  -1.118  0.00  0.00    -0.255 OA
ATOM     17  C   LIG    1       -9.114   0.784  -0.174  0.00  0.00    +0.059 A 
ENDBRANCH   2   7
BRANCH   4  18
ATOM     18  C   LIG    1       -6.004  -3.888  -1.385  0.00  0.00    +0.035 A 
ATOM     19  C   LIG    1       -5.977  -4.664  -2.548  0.00  0.00    +0.025 A 
ATOM     20  C   LIG    1       -5.669  -6.025  -2.487  0.00  0.00    +0.022 A 
ATOM     21  C   LIG    1       -5.363  -6.625  -1.264  0.00  0.00    +0.053 A 
ATOM     22  C   LIG    1       -5.362  -5.865  -0.089  0.00  0.00    +0.075 A 
ATOM     23 CL   LIG    1       -4.995  -8.309  -1.274  0.00  0.00    -0.083 Cl
ATOM     24  C   LIG    1       -5.683  -4.491  -0.165  0.00  0.00    +0.037 A 
BRANCH  22  25
ATOM     25  C   LIG    1       -5.034  -6.489   1.243  0.00  0.00    +0.419 C 
ATOM     26  F   LIG    1       -3.812  -7.084   1.269  0.00  0.00    -0.166 F 
ATOM     27  F   LIG    1       -5.939  -7.428   1.628  0.00  0.00    -0.166 F 
ATOM     28  F   LIG    1       -5.010  -5.575   2.258  0.00  0.00    -0.166 F 
ENDBRANCH  22  25
ENDBRANCH   4  18
TORSDOF 3                                   
ENDMDL
MODEL 11
REMARK VINA RESULT:    -7.462      5.597      9.767
REMARK INTER + INTRA:          -9.135
REMARK INTER:                  -8.587
REMARK INTRA:                  -0.548
REMARK UNBOUND:                -0.364
REMARK  Name = /tmp/59BH6PR
REMARK                            x       y       z     vdW  Elec       q    Type
REMARK                         _______ _______ _______ _____ _____    ______ ____
ROOT
ATOM      1  H   LIG    1       -4.123  -4.163   2.346  0.00  0.00    +0.156 HD
ATOM      2  N   LIG    1       -5.014  -4.622   2.505  0.00  0.00    -0.269 N 
ATOM      3  C   LIG    1       -6.034  -4.199   1.656  0.00  0.00    +0.308 C 
ATOM      4  N   LIG    1       -5.696  -3.019   1.025  0.00  0.00    -0.269 N 
ATOM      5  H   LIG    1       -4.905  -2.507   1.386  0.00  0.00    +0.156 HD
ATOM      6  O   LIG    1       -7.072  -4.835   1.518  0.00  0.00    -0.252 OA
ENDROOT
BRANCH   2   7
ATOM      7  C   LIG    1       -5.039  -5.785   3.298  0.00  0.00    +0.037 A 
ATOM      8  C   LIG    1       -4.301  -6.901   2.827  0.00  0.00    +0.026 A 
ATOM      9  C   LIG    1       -4.328  -8.132   3.499  0.00  0.00    +0.037 A 
ATOM     10  C   LIG    1       -5.087  -8.185   4.643  0.00  0.00    +0.115 A 
ATOM     11  C   LIG    1       -5.767  -7.107   5.128  0.00  0.00    +0.117 A 
ATOM     12  O   LIG    1       -6.334  -7.445   6.171  0.00  0.00    -0.255 OA
ATOM     13  C   LIG    1       -6.035  -8.667   6.297  0.00  0.00    +0.498 C 
ATOM     14  F   LIG    1       -7.173  -9.382   6.303  0.00  0.00    -0.147 F 
ATOM     15  F   LIG    1       -5.432  -8.836   7.486  0.00  0.00    -0.147 F 
ATOM     16  O   LIG    1       -5.278  -9.141   5.403  0.00  0.00    -0.255 OA
ATOM     17  C   LIG    1       -5.765  -5.883   4.498  0.00  0.00    +0.059 A 
ENDBRANCH   2   7
BRANCH   4  18
ATOM     18  C   LIG    1       -6.455  -2.320   0.061  0.00  0.00    +0.035 A 
ATOM     19  C   LIG    1       -6.416  -2.804  -1.251  0.00  0.00    +0.025 A 
ATOM     20  C   LIG    1       -7.118  -2.155  -2.268  0.00  0.00    +0.022 A 
ATOM     21  C   LIG    1       -7.885  -1.023  -1.985  0.00  0.00    +0.053 A 
ATOM     22  C   LIG    1       -7.958  -0.532  -0.677  0.00  0.00    +0.075 A 
ATOM     23 CL   LIG    1       -8.720  -0.279  -3.297  0.00  0.00    -0.083 Cl
ATOM     24  C   LIG    1       -7.236  -1.196   0.342  0.00  0.00    +0.037 A 
BRANCH  22  25
ATOM     25  C   LIG    1       -8.780   0.687  -0.345  0.00  0.00    +0.419 C 
ATOM     26  F   LIG    1      -10.117   0.488  -0.498  0.00  0.00    -0.166 F 
ATOM     27  F   LIG    1       -8.453   1.770  -1.098  0.00  0.00    -0.166 F 
ATOM     28  F   LIG    1       -8.622   1.088   0.951  0.00  0.00    -0.166 F 
ENDBRANCH  22  25
ENDBRANCH   4  18
TORSDOF 3                                   
ENDMDL
MODEL 12
REMARK VINA RESULT:    -7.401      2.510      2.892
REMARK INTER + INTRA:          -9.063
REMARK INTER:                  -8.619
REMARK INTRA:                  -0.444
REMARK UNBOUND:                -0.364
REMARK  Name = /tmp/59BH6PR
REMARK                            x       y       z     vdW  Elec       q    Type
REMARK                         _______ _______ _______ _____ _____    ______ ____
ROOT
ATOM      1  H   LIG    1       -4.718  -2.591  -0.254  0.00  0.00    +0.156 HD
ATOM      2  N   LIG    1       -5.439  -2.250  -0.882  0.00  0.00    -0.269 N 
ATOM      3  C   LIG    1       -6.060  -3.245  -1.632  0.00  0.00    +0.308 C 
ATOM      4  N   LIG    1       -5.332  -4.416  -1.603  0.00  0.00    -0.269 N 
ATOM      5  H   LIG    1       -4.384  -4.368  -1.257  0.00  0.00    +0.156 HD
ATOM      6  O   LIG    1       -7.121  -3.054  -2.214  0.00  0.00    -0.252 OA
ENDROOT
BRANCH   2   7
ATOM      7  C   LIG    1       -5.917  -0.937  -0.706  0.00  0.00    +0.037 A 
ATOM      8  C   LIG    1       -5.314   0.078  -1.493  0.00  0.00    +0.026 A 
ATOM      9  C   LIG    1       -5.659   1.428  -1.333  0.00  0.00    +0.037 A 
ATOM     10  C   LIG    1       -6.623   1.703  -0.394  0.00  0.00    +0.115 A 
ATOM     11  C   LIG    1       -7.238   0.731   0.339  0.00  0.00    +0.117 A 
ATOM     12  O   LIG    1       -8.068   1.271   1.077  0.00  0.00    -0.255 OA
ATOM     13  C   LIG    1       -7.944   2.504   0.824  0.00  0.00    +0.498 C 
ATOM     14  F   LIG    1       -7.599   3.135   1.959  0.00  0.00    -0.147 F 
ATOM     15  F   LIG    1       -9.137   2.979   0.431  0.00  0.00    -0.147 F 
ATOM     16  O   LIG    1       -7.093   2.798  -0.062  0.00  0.00    -0.255 OA
ATOM     17  C   LIG    1       -6.929  -0.603   0.211  0.00  0.00    +0.059 A 
ENDBRANCH   2   7
BRANCH   4  18
ATOM     18  C   LIG    1       -5.674  -5.649  -2.202  0.00  0.00    +0.035 A 
ATOM     19  C   LIG    1       -6.805  -6.303  -1.706  0.00  0.00    +0.025 A 
ATOM     20  C   LIG    1       -7.196  -7.539  -2.227  0.00  0.00    +0.022 A 
ATOM     21  C   LIG    1       -6.471  -8.128  -3.264  0.00  0.00    +0.053 A 
ATOM     22  C   LIG    1       -5.347  -7.483  -3.792  0.00  0.00    +0.075 A 
ATOM     23 CL   LIG    1       -7.017  -9.655  -3.849  0.00  0.00    -0.083 Cl
ATOM     24  C   LIG    1       -4.960  -6.236  -3.250  0.00  0.00    +0.037 A 
BRANCH  22  25
ATOM     25  C   LIG    1       -4.549  -8.098  -4.913  0.00  0.00    +0.419 C 
ATOM     26  F   LIG    1       -3.390  -7.434  -5.171  0.00  0.00    -0.166 F 
ATOM     27  F   LIG    1       -5.238  -8.161  -6.083  0.00  0.00    -0.166 F 
ATOM     28  F   LIG    1       -4.175  -9.384  -4.646  0.00  0.00    -0.166 F 
ENDBRANCH  22  25
ENDBRANCH   4  18
TORSDOF 3                                   
ENDMDL
MODEL 13
REMARK VINA RESULT:    -7.398      4.334     10.029
REMARK INTER + INTRA:          -9.060
REMARK INTER:                  -8.597
REMARK INTRA:                  -0.463
REMARK UNBOUND:                -0.364
REMARK  Name = /tmp/59BH6PR
REMARK                            x       y       z     vdW  Elec       q    Type
REMARK                         _______ _______ _______ _____ _____    ______ ____
ROOT
ATOM      1  H   LIG    1       -9.908  -1.925  -0.601  0.00  0.00    +0.156 HD
ATOM      2  N   LIG    1       -8.963  -1.581  -0.744  0.00  0.00    -0.269 N 
ATOM      3  C   LIG    1       -8.843  -0.196  -0.673  0.00  0.00    +0.308 C 
ATOM      4  N   LIG    1      -10.077   0.415  -0.762  0.00  0.00    -0.269 N 
ATOM      5  H   LIG    1      -10.855  -0.149  -1.074  0.00  0.00    +0.156 HD
ATOM      6  O   LIG    1       -7.758   0.357  -0.538  0.00  0.00    -0.252 OA
ENDROOT
BRANCH   2   7
ATOM      7  C   LIG    1       -7.898  -2.500  -0.685  0.00  0.00    +0.037 A 
ATOM      8  C   LIG    1       -7.201  -2.755  -1.894  0.00  0.00    +0.026 A 
ATOM      9  C   LIG    1       -6.181  -3.715  -1.961  0.00  0.00    +0.037 A 
ATOM     10  C   LIG    1       -5.884  -4.371  -0.792  0.00  0.00    +0.115 A 
ATOM     11  C   LIG    1       -6.519  -4.105   0.386  0.00  0.00    +0.117 A 
ATOM     12  O   LIG    1       -6.030  -4.826   1.261  0.00  0.00    -0.255 OA
ATOM     13  C   LIG    1       -5.164  -5.509   0.643  0.00  0.00    +0.498 C 
ATOM     14  F   LIG    1       -5.481  -6.808   0.770  0.00  0.00    -0.147 F 
ATOM     15  F   LIG    1       -3.971  -5.313   1.229  0.00  0.00    -0.147 F 
ATOM     16  O   LIG    1       -5.042  -5.254  -0.589  0.00  0.00    -0.255 OA
ATOM     17  C   LIG    1       -7.524  -3.171   0.492  0.00  0.00    +0.059 A 
ENDBRANCH   2   7
BRANCH   4  18
ATOM     18  C   LIG    1      -10.353   1.797  -0.678  0.00  0.00    +0.035 A 
ATOM     19  C   LIG    1      -11.066   2.368  -1.736  0.00  0.00    +0.025 A 
ATOM     20  C   LIG    1      -11.357   3.734  -1.741  0.00  0.00    +0.022 A 
ATOM     21  C   LIG    1      -10.955   4.545  -0.678  0.00  0.00    +0.053 A 
ATOM     22  C   LIG    1      -10.258   3.994   0.402  0.00  0.00    +0.075 A 
ATOM     23 CL   LIG    1      -11.352   6.220  -0.762  0.00  0.00    -0.083 Cl
ATOM     24  C   LIG    1       -9.965   2.611   0.390  0.00  0.00    +0.037 A 
BRANCH  22  25
ATOM     25  C   LIG    1       -9.815   4.848   1.563  0.00  0.00    +0.419 C 
ATOM     26  F   LIG    1       -9.118   4.154   2.502  0.00  0.00    -0.166 F 
ATOM     27  F   LIG    1      -10.851   5.452   2.204  0.00  0.00    -0.166 F 
ATOM     28  F   LIG    1       -8.988   5.864   1.178  0.00  0.00    -0.166 F 
ENDBRANCH  22  25
ENDBRANCH   4  18
TORSDOF 3                                   
ENDMDL
MODEL 14
REMARK VINA RESULT:    -7.391      4.994      9.344
REMARK INTER + INTRA:          -9.051
REMARK INTER:                  -8.548
REMARK INTRA:                  -0.503
REMARK UNBOUND:                -0.364
REMARK  Name = /tmp/59BH6PR
REMARK                            x       y       z     vdW  Elec       q    Type
REMARK                         _______ _______ _______ _____ _____    ______ ____
ROOT
ATOM      1  H   LIG    1       -5.290  -2.304   0.919  0.00  0.00    +0.156 HD
ATOM      2  N   LIG    1       -6.145  -2.816   1.115  0.00  0.00    -0.269 N 
ATOM      3  C   LIG    1       -7.253  -2.373   0.397  0.00  0.00    +0.308 C 
ATOM      4  N   LIG    1       -7.019  -1.133  -0.162  0.00  0.00    -0.269 N 
ATOM      5  H   LIG    1       -6.219  -0.615   0.171  0.00  0.00    +0.156 HD
ATOM      6  O   LIG    1       -8.274  -3.043   0.296  0.00  0.00    -0.252 OA
ENDROOT
BRANCH   2   7
ATOM      7  C   LIG    1       -6.053  -4.038   1.809  0.00  0.00    +0.037 A 
ATOM      8  C   LIG    1       -5.936  -5.215   1.025  0.00  0.00    +0.026 A 
ATOM      9  C   LIG    1       -5.923  -6.487   1.615  0.00  0.00    +0.037 A 
ATOM     10  C   LIG    1       -6.006  -6.524   2.986  0.00  0.00    +0.115 A 
ATOM     11  C   LIG    1       -6.077  -5.397   3.751  0.00  0.00    +0.117 A 
ATOM     12  O   LIG    1       -6.117  -5.737   4.938  0.00  0.00    -0.255 OA
ATOM     13  C   LIG    1       -6.098  -7.001   4.892  0.00  0.00    +0.498 C 
ATOM     14  F   LIG    1       -7.218  -7.462   5.474  0.00  0.00    -0.147 F 
ATOM     15  F   LIG    1       -5.048  -7.436   5.609  0.00  0.00    -0.147 F 
ATOM     16  O   LIG    1       -6.020  -7.506   3.737  0.00  0.00    -0.255 OA
ATOM     17  C   LIG    1       -6.092  -4.131   3.211  0.00  0.00    +0.059 A 
ENDBRANCH   2   7
BRANCH   4  18
ATOM     18  C   LIG    1       -7.888  -0.396  -0.995  0.00  0.00    +0.035 A 
ATOM     19  C   LIG    1       -7.766  -0.594  -2.374  0.00  0.00    +0.025 A 
ATOM     20  C   LIG    1       -8.571   0.117  -3.267  0.00  0.00    +0.022 A 
ATOM     21  C   LIG    1       -9.523   1.021  -2.793  0.00  0.00    +0.053 A 
ATOM     22  C   LIG    1       -9.679   1.222  -1.418  0.00  0.00    +0.075 A 
ATOM     23 CL   LIG    1      -10.474   1.859  -3.962  0.00  0.00    -0.083 Cl
ATOM     24  C   LIG    1       -8.852   0.500  -0.526  0.00  0.00    +0.037 A 
BRANCH  22  25
ATOM     25  C   LIG    1      -10.701   2.191  -0.881  0.00  0.00    +0.419 C 
ATOM     26  F   LIG    1      -11.964   1.928  -1.309  0.00  0.00    -0.166 F 
ATOM     27  F   LIG    1      -10.432   3.482  -1.210  0.00  0.00    -0.166 F 
ATOM     28  F   LIG    1      -10.772   2.174   0.483  0.00  0.00    -0.166 F 
ENDBRANCH  22  25
ENDBRANCH   4  18
TORSDOF 3                                   
ENDMDL
MODEL 15
REMARK VINA RESULT:    -7.335      4.664      9.749
REMARK INTER + INTRA:          -8.985
REMARK INTER:                  -8.399
REMARK INTRA:                  -0.586
REMARK UNBOUND:                -0.364
REMARK  Name = /tmp/59BH6PR
REMARK                            x       y       z     vdW  Elec       q    Type
REMARK                         _______ _______ _______ _____ _____    ______ ____
ROOT
ATOM      1  H   LIG    1       -9.785  -1.542  -0.158  0.00  0.00    +0.156 HD
ATOM      2  N   LIG    1       -8.951  -1.196  -0.624  0.00  0.00    -0.269 N 
ATOM      3  C   LIG    1       -8.994   0.159  -0.940  0.00  0.00    +0.308 C 
ATOM      4  N   LIG    1      -10.282   0.647  -0.857  0.00  0.00    -0.269 N 
ATOM      5  H   LIG    1      -11.033  -0.025  -0.802  0.00  0.00    +0.156 HD
ATOM      6  O   LIG    1       -7.987   0.791  -1.236  0.00  0.00    -0.252 OA
ENDROOT
BRANCH   2   7
ATOM      7  C   LIG    1       -7.794  -1.999  -0.614  0.00  0.00    +0.037 A 
ATOM      8  C   LIG    1       -7.430  -2.618  -1.838  0.00  0.00    +0.026 A 
ATOM      9  C   LIG    1       -6.345  -3.502  -1.915  0.00  0.00    +0.037 A 
ATOM     10  C   LIG    1       -5.648  -3.715  -0.750  0.00  0.00    +0.115 A 
ATOM     11  C   LIG    1       -5.965  -3.094   0.423  0.00  0.00    +0.117 A 
ATOM     12  O   LIG    1       -5.157  -3.459   1.283  0.00  0.00    -0.255 OA
ATOM     13  C   LIG    1       -4.409  -4.275   0.672  0.00  0.00    +0.498 C 
ATOM     14  F   LIG    1       -4.495  -5.467   1.285  0.00  0.00    -0.147 F 
ATOM     15  F   LIG    1       -3.140  -3.846   0.773  0.00  0.00    -0.147 F 
ATOM     16  O   LIG    1       -4.669  -4.444  -0.553  0.00  0.00    -0.255 OA
ATOM     17  C   LIG    1       -7.021  -2.219   0.539  0.00  0.00    +0.059 A 
ENDBRANCH   2   7
BRANCH   4  18
ATOM     18  C   LIG    1      -10.704   1.980  -1.056  0.00  0.00    +0.035 A 
ATOM     19  C   LIG    1      -11.009   2.727   0.086  0.00  0.00    +0.025 A 
ATOM     20  C   LIG    1      -11.457   4.045  -0.027  0.00  0.00    +0.022 A 
ATOM     21  C   LIG    1      -11.588   4.641  -1.282  0.00  0.00    +0.053 A 
ATOM     22  C   LIG    1      -11.269   3.921  -2.439  0.00  0.00    +0.075 A 
ATOM     23 CL   LIG    1      -12.150   6.270  -1.335  0.00  0.00    -0.083 Cl
ATOM     24  C   LIG    1      -10.823   2.586  -2.310  0.00  0.00    +0.037 A 
BRANCH  22  25
ATOM     25  C   LIG    1      -11.401   4.543  -3.806  0.00  0.00    +0.419 C 
ATOM     26  F   LIG    1      -10.548   5.583  -4.005  0.00  0.00    -0.166 F 
ATOM     27  F   LIG    1      -12.654   5.004  -4.062  0.00  0.00    -0.166 F 
ATOM     28  F   LIG    1      -11.130   3.658  -4.811  0.00  0.00    -0.166 F 
ENDBRANCH  22  25
ENDBRANCH   4  18
TORSDOF 3                                   
ENDMDL
MODEL 16
REMARK VINA RESULT:    -7.262      4.423      6.041
REMARK INTER + INTRA:          -8.899
REMARK INTER:                  -8.443
REMARK INTRA:                  -0.457
REMARK UNBOUND:                -0.364
REMARK  Name = /tmp/59BH6PR
REMARK                            x       y       z     vdW  Elec       q    Type
REMARK                         _______ _______ _______ _____ _____    ______ ____
ROOT
ATOM      1  H   LIG    1      -11.458   2.781  -1.248  0.00  0.00    +0.156 HD
ATOM      2  N   LIG    1      -10.757   3.148  -0.612  0.00  0.00    -0.269 N 
ATOM      3  C   LIG    1       -9.624   2.347  -0.489  0.00  0.00    +0.308 C 
ATOM      4  N   LIG    1       -9.853   1.083  -0.990  0.00  0.00    -0.269 N 
ATOM      5  H   LIG    1      -10.811   0.819  -1.171  0.00  0.00    +0.156 HD
ATOM      6  O   LIG    1       -8.581   2.766  -0.000  0.00  0.00    -0.252 OA
ENDROOT
BRANCH   2   7
ATOM      7  C   LIG    1      -10.861   4.490  -0.198  0.00  0.00    +0.037 A 
ATOM      8  C   LIG    1      -10.942   5.473  -1.217  0.00  0.00    +0.026 A 
ATOM      9  C   LIG    1      -10.963   6.842  -0.911  0.00  0.00    +0.037 A 
ATOM     10  C   LIG    1      -10.926   7.169   0.422  0.00  0.00    +0.115 A 
ATOM     11  C   LIG    1      -10.891   6.230   1.412  0.00  0.00    +0.117 A 
ATOM     12  O   LIG    1      -10.886   6.816   2.499  0.00  0.00    -0.255 OA
ATOM     13  C   LIG    1      -10.893   8.041   2.185  0.00  0.00    +0.498 C 
ATOM     14  F   LIG    1       -9.789   8.613   2.695  0.00  0.00    -0.147 F 
ATOM     15  F   LIG    1      -11.962   8.620   2.757  0.00  0.00    -0.147 F 
ATOM     16  O   LIG    1      -10.928   8.289   0.947  0.00  0.00    -0.255 OA
ATOM     17  C   LIG    1      -10.868   4.879   1.153  0.00  0.00    +0.059 A 
ENDBRANCH   2   7
BRANCH   4  18
ATOM     18  C   LIG    1       -8.927   0.021  -1.082  0.00  0.00    +0.035 A 
ATOM     19  C   LIG    1       -8.592  -0.420  -2.365  0.00  0.00    +0.025 A 
ATOM     20  C   LIG    1       -7.702  -1.483  -2.541  0.00  0.00    +0.022 A 
ATOM     21  C   LIG    1       -7.121  -2.107  -1.436  0.00  0.00    +0.053 A 
ATOM     22  C   LIG    1       -7.425  -1.671  -0.142  0.00  0.00    +0.075 A 
ATOM     23 CL   LIG    1       -6.036  -3.412  -1.739  0.00  0.00    -0.083 Cl
ATOM     24  C   LIG    1       -8.332  -0.598   0.021  0.00  0.00    +0.037 A 
BRANCH  22  25
ATOM     25  C   LIG    1       -6.809  -2.326   1.068  0.00  0.00    +0.419 C 
ATOM     26  F   LIG    1       -7.190  -1.752   2.240  0.00  0.00    -0.166 F 
ATOM     27  F   LIG    1       -5.450  -2.314   1.045  0.00  0.00    -0.166 F 
ATOM     28  F   LIG    1       -7.155  -3.643   1.182  0.00  0.00    -0.166 F 
ENDBRANCH  22  25
ENDBRANCH   4  18
TORSDOF 3                                   
ENDMDL
MODEL 17
REMARK VINA RESULT:    -7.254      4.248      4.909
REMARK INTER + INTRA:          -8.890
REMARK INTER:                  -8.296
REMARK INTRA:                  -0.594
REMARK UNBOUND:                -0.364
REMARK  Name = /tmp/59BH6PR
REMARK                            x       y       z     vdW  Elec       q    Type
REMARK                         _______ _______ _______ _____ _____    ______ ____
ROOT
ATOM      1  H   LIG    1       -5.754  -1.175   0.132  0.00  0.00    +0.156 HD
ATOM      2  N   LIG    1       -6.627  -1.621  -0.130  0.00  0.00    -0.269 N 
ATOM      3  C   LIG    1       -6.840  -2.859   0.472  0.00  0.00    +0.308 C 
ATOM      4  N   LIG    1       -5.673  -3.351   1.019  0.00  0.00    -0.269 N 
ATOM      5  H   LIG    1       -4.807  -2.907   0.749  0.00  0.00    +0.156 HD
ATOM      6  O   LIG    1       -7.943  -3.391   0.493  0.00  0.00    -0.252 OA
ENDROOT
BRANCH   2   7
ATOM      7  C   LIG    1       -7.607  -0.848  -0.782  0.00  0.00    +0.037 A 
ATOM      8  C   LIG    1       -7.766  -1.053  -2.177  0.00  0.00    +0.026 A 
ATOM      9  C   LIG    1       -8.654  -0.276  -2.933  0.00  0.00    +0.037 A 
ATOM     10  C   LIG    1       -9.371   0.673  -2.246  0.00  0.00    +0.115 A 
ATOM     11  C   LIG    1       -9.257   0.851  -0.898  0.00  0.00    +0.117 A 
ATOM     12  O   LIG    1      -10.033   1.750  -0.560  0.00  0.00    -0.255 OA
ATOM     13  C   LIG    1      -10.570   2.113  -1.646  0.00  0.00    +0.498 C 
ATOM     14  F   LIG    1      -10.297   3.415  -1.837  0.00  0.00    -0.147 F 
ATOM     15  F   LIG    1      -11.901   1.981  -1.527  0.00  0.00    -0.147 F 
ATOM     16  O   LIG    1      -10.203   1.480  -2.676  0.00  0.00    -0.255 OA
ATOM     17  C   LIG    1       -8.398   0.108  -0.121  0.00  0.00    +0.059 A 
ENDBRANCH   2   7
BRANCH   4  18
ATOM     18  C   LIG    1       -5.512  -4.549   1.750  0.00  0.00    +0.035 A 
ATOM     19  C   LIG    1       -4.889  -5.614   1.094  0.00  0.00    +0.025 A 
ATOM     20  C   LIG    1       -4.715  -6.841   1.739  0.00  0.00    +0.022 A 
ATOM     21  C   LIG    1       -5.146  -7.013   3.055  0.00  0.00    +0.053 A 
ATOM     22  C   LIG    1       -5.754  -5.956   3.740  0.00  0.00    +0.075 A 
ATOM     23 CL   LIG    1       -4.896  -8.558   3.778  0.00  0.00    -0.083 Cl
ATOM     24  C   LIG    1       -5.929  -4.722   3.073  0.00  0.00    +0.037 A 
BRANCH  22  25
ATOM     25  C   LIG    1       -6.226  -6.116   5.163  0.00  0.00    +0.419 C 
ATOM     26  F   LIG    1       -5.241  -6.513   6.012  0.00  0.00    -0.166 F 
ATOM     27  F   LIG    1       -7.241  -7.012   5.288  0.00  0.00    -0.166 F 
ATOM     28  F   LIG    1       -6.707  -4.951   5.689  0.00  0.00    -0.166 F 
ENDBRANCH  22  25
ENDBRANCH   4  18
TORSDOF 3                                   
ENDMDL
MODEL 18
REMARK VINA RESULT:    -7.218      4.094      5.121
REMARK INTER + INTRA:          -8.848
REMARK INTER:                  -8.521
REMARK INTRA:                  -0.327
REMARK UNBOUND:                -0.364
REMARK  Name = /tmp/59BH6PR
REMARK                            x       y       z     vdW  Elec       q    Type
REMARK                         _______ _______ _______ _____ _____    ______ ____
ROOT
ATOM      1  H   LIG    1       -7.927   2.463  -2.493  0.00  0.00    +0.156 HD
ATOM      2  N   LIG    1       -8.346   1.826  -3.164  0.00  0.00    -0.269 N 
ATOM      3  C   LIG    1       -8.320   0.489  -2.773  0.00  0.00    +0.308 C 
ATOM      4  N   LIG    1       -7.438   0.294  -1.731  0.00  0.00    -0.269 N 
ATOM      5  H   LIG    1       -6.785   1.037  -1.527  0.00  0.00    +0.156 HD
ATOM      6  O   LIG    1       -9.020  -0.360  -3.312  0.00  0.00    -0.252 OA
ENDROOT
BRANCH   2   7
ATOM      7  C   LIG    1       -9.136   2.362  -4.198  0.00  0.00    +0.037 A 
ATOM      8  C   LIG    1      -10.020   3.416  -3.852  0.00  0.00    +0.026 A 
ATOM      9  C   LIG    1      -10.910   3.962  -4.789  0.00  0.00    +0.037 A 
ATOM     10  C   LIG    1      -10.859   3.435  -6.056  0.00  0.00    +0.115 A 
ATOM     11  C   LIG    1       -9.984   2.450  -6.411  0.00  0.00    +0.117 A 
ATOM     12  O   LIG    1      -10.151   2.197  -7.608  0.00  0.00    -0.255 OA
ATOM     13  C   LIG    1      -11.092   2.969  -7.953  0.00  0.00    +0.498 C 
ATOM     14  F   LIG    1      -12.113   2.216  -8.398  0.00  0.00    -0.147 F 
ATOM     15  F   LIG    1      -10.664   3.732  -8.972  0.00  0.00    -0.147 F 
ATOM     16  O   LIG    1      -11.533   3.733  -7.049  0.00  0.00    -0.255 OA
ATOM     17  C   LIG    1       -9.096   1.890  -5.521  0.00  0.00    +0.059 A 
ENDBRANCH   2   7
BRANCH   4  18
ATOM     18  C   LIG    1       -7.185  -0.913  -1.043  0.00  0.00    +0.035 A 
ATOM     19  C   LIG    1       -7.398  -0.913   0.339  0.00  0.00    +0.025 A 
ATOM     20  C   LIG    1       -7.146  -2.059   1.097  0.00  0.00    +0.022 A 
ATOM     21  C   LIG    1       -6.696  -3.227   0.480  0.00  0.00    +0.053 A 
ATOM     22  C   LIG    1       -6.494  -3.259  -0.904  0.00  0.00    +0.075 A 
ATOM     23 CL   LIG    1       -6.407  -4.597   1.486  0.00  0.00    -0.083 Cl
ATOM     24  C   LIG    1       -6.747  -2.089  -1.657  0.00  0.00    +0.037 A 
BRANCH  22  25
ATOM     25  C   LIG    1       -6.010  -4.509  -1.594  0.00  0.00    +0.419 C 
ATOM     26  F   LIG    1       -6.819  -5.582  -1.387  0.00  0.00    -0.166 F 
ATOM     27  F   LIG    1       -4.758  -4.876  -1.211  0.00  0.00    -0.166 F 
ATOM     28  F   LIG    1       -5.943  -4.365  -2.951  0.00  0.00    -0.166 F 
ENDBRANCH  22  25
ENDBRANCH   4  18
TORSDOF 3                                   
ENDMDL
MODEL 19
REMARK VINA RESULT:    -7.143      3.628      9.638
REMARK INTER + INTRA:          -8.760
REMARK INTER:                  -8.193
REMARK INTRA:                  -0.567
REMARK UNBOUND:                -0.364
REMARK  Name = /tmp/59BH6PR
REMARK                            x       y       z     vdW  Elec       q    Type
REMARK                         _______ _______ _______ _____ _____    ______ ____
ROOT
ATOM      1  H   LIG    1       -5.549  -0.712  -1.948  0.00  0.00    +0.156 HD
ATOM      2  N   LIG    1       -5.938  -1.303  -1.220  0.00  0.00    -0.269 N 
ATOM      3  C   LIG    1       -6.958  -0.705  -0.484  0.00  0.00    +0.308 C 
ATOM      4  N   LIG    1       -6.979   0.660  -0.683  0.00  0.00    -0.269 N 
ATOM      5  H   LIG    1       -6.175   1.079  -1.127  0.00  0.00    +0.156 HD
ATOM      6  O   LIG    1       -7.717  -1.356   0.225  0.00  0.00    -0.252 OA
ENDROOT
BRANCH   2   7
ATOM      7  C   LIG    1       -5.641  -2.679  -1.241  0.00  0.00    +0.037 A 
ATOM      8  C   LIG    1       -4.552  -3.114  -0.443  0.00  0.00    +0.026 A 
ATOM      9  C   LIG    1       -4.122  -4.449  -0.459  0.00  0.00    +0.037 A 
ATOM     10  C   LIG    1       -4.826  -5.306  -1.268  0.00  0.00    +0.115 A 
ATOM     11  C   LIG    1       -5.901  -4.907  -2.007  0.00  0.00    +0.117 A 
ATOM     12  O   LIG    1       -6.341  -5.891  -2.611  0.00  0.00    -0.255 OA
ATOM     13  C   LIG    1       -5.561  -6.828  -2.276  0.00  0.00    +0.498 C 
ATOM     14  F   LIG    1       -4.982  -7.314  -3.387  0.00  0.00    -0.147 F 
ATOM     15  F   LIG    1       -6.291  -7.812  -1.724  0.00  0.00    -0.147 F 
ATOM     16  O   LIG    1       -4.647  -6.515  -1.462  0.00  0.00    -0.255 OA
ATOM     17  C   LIG    1       -6.354  -3.608  -2.019  0.00  0.00    +0.059 A 
ENDBRANCH   2   7
BRANCH   4  18
ATOM     18  C   LIG    1       -7.900   1.586  -0.146  0.00  0.00    +0.035 A 
ATOM     19  C   LIG    1       -7.468   2.354   0.939  0.00  0.00    +0.025 A 
ATOM     20  C   LIG    1       -8.327   3.275   1.544  0.00  0.00    +0.022 A 
ATOM     21  C   LIG    1       -9.624   3.454   1.059  0.00  0.00    +0.053 A 
ATOM     22  C   LIG    1      -10.073   2.712  -0.039  0.00  0.00    +0.075 A 
ATOM     23 CL   LIG    1      -10.621   4.608   1.863  0.00  0.00    -0.083 Cl
ATOM     24  C   LIG    1       -9.195   1.779  -0.636  0.00  0.00    +0.037 A 
BRANCH  22  25
ATOM     25  C   LIG    1      -11.468   2.888  -0.582  0.00  0.00    +0.419 C 
ATOM     26  F   LIG    1      -11.718   2.117  -1.673  0.00  0.00    -0.166 F 
ATOM     27  F   LIG    1      -11.743   4.173  -0.934  0.00  0.00    -0.166 F 
ATOM     28  F   LIG    1      -12.430   2.550   0.327  0.00  0.00    -0.166 F 
ENDBRANCH  22  25
ENDBRANCH   4  18
TORSDOF 3                                   
ENDMDL
MODEL 20
REMARK VINA RESULT:    -7.069      2.275      3.001
REMARK INTER + INTRA:          -8.672
REMARK INTER:                  -8.308
REMARK INTRA:                  -0.364
REMARK UNBOUND:                -0.364
REMARK  Name = /tmp/59BH6PR
REMARK                            x       y       z     vdW  Elec       q    Type
REMARK                         _______ _______ _______ _____ _____    ______ ____
ROOT
ATOM      1  H   LIG    1       -8.067   0.783   0.719  0.00  0.00    +0.156 HD
ATOM      2  N   LIG    1       -8.409   0.573  -0.213  0.00  0.00    -0.269 N 
ATOM      3  C   LIG    1       -8.183  -0.739  -0.623  0.00  0.00    +0.308 C 
ATOM      4  N   LIG    1       -7.253  -1.358   0.187  0.00  0.00    -0.269 N 
ATOM      5  H   LIG    1       -6.707  -0.773   0.803  0.00  0.00    +0.156 HD
ATOM      6  O   LIG    1       -8.769  -1.233  -1.578  0.00  0.00    -0.252 OA
ENDROOT
BRANCH   2   7
ATOM      7  C   LIG    1       -9.296   1.480  -0.823  0.00  0.00    +0.037 A 
ATOM      8  C   LIG    1      -10.626   1.508  -0.332  0.00  0.00    +0.026 A 
ATOM      9  C   LIG    1      -11.608   2.314  -0.926  0.00  0.00    +0.037 A 
ATOM     10  C   LIG    1      -11.203   3.085  -1.988  0.00  0.00    +0.115 A 
ATOM     11  C   LIG    1       -9.917   3.097  -2.442  0.00  0.00    +0.117 A 
ATOM     12  O   LIG    1       -9.847   3.895  -3.383  0.00  0.00    -0.255 OA
ATOM     13  C   LIG    1      -11.030   4.323  -3.507  0.00  0.00    +0.498 C 
ATOM     14  F   LIG    1      -11.460   4.022  -4.744  0.00  0.00    -0.147 F 
ATOM     15  F   LIG    1      -11.012   5.661  -3.387  0.00  0.00    -0.147 F 
ATOM     16  O   LIG    1      -11.867   3.866  -2.679  0.00  0.00    -0.255 OA
ATOM     17  C   LIG    1       -8.925   2.321  -1.887  0.00  0.00    +0.059 A 
ENDBRANCH   2   7
BRANCH   4  18
ATOM     18  C   LIG    1       -6.811  -2.698   0.110  0.00  0.00    +0.035 A 
ATOM     19  C   LIG    1       -6.721  -3.407   1.311  0.00  0.00    +0.025 A 
ATOM     20  C   LIG    1       -6.269  -4.728   1.324  0.00  0.00    +0.022 A 
ATOM     21  C   LIG    1       -5.919  -5.365   0.132  0.00  0.00    +0.053 A 
ATOM     22  C   LIG    1       -6.019  -4.683  -1.086  0.00  0.00    +0.075 A 
ATOM     23 CL   LIG    1       -5.368  -6.995   0.234  0.00  0.00    -0.083 Cl
ATOM     24  C   LIG    1       -6.473  -3.344  -1.082  0.00  0.00    +0.037 A 
BRANCH  22  25
ATOM     25  C   LIG    1       -5.649  -5.349  -2.386  0.00  0.00    +0.419 C 
ATOM     26  F   LIG    1       -4.319  -5.614  -2.492  0.00  0.00    -0.166 F 
ATOM     27  F   LIG    1       -5.994  -4.614  -3.476  0.00  0.00    -0.166 F 
ATOM     28  F   LIG    1       -6.270  -6.554  -2.553  0.00  0.00    -0.166 F 
ENDBRANCH  22  25
ENDBRANCH   4  18
TORSDOF 3                                   
ENDMDL
