REMARK SMILES Cc1ccc(NC(=O)c2cccnc2)cc1Nc1nccc(-c2cccnc2)n1
REMARK SMILES IDX 16 1 15 2 5 3 4 4 3 5 2 6 1 7 17 8 18 10 22 11 29 12 21 13
REMARK SMILES IDX 20 14 19 15 23 16 25 17 26 18 24 19 27 20 28 21 6 22 7 24
REMARK SMILES IDX 8 25 9 26 10 27 14 28 11 29 13 30 12 31
REMARK H PARENT 17 9 6 23
REMARK Flexibility Score: inf
ROOT
ATOM      1  C   UNL     1      15.696  54.083  12.251  1.00  0.00     0.046 A 
ATOM      2  C   UNL     1      15.649  53.162  13.350  1.00  0.00     0.052 A 
ATOM      3  C   UNL     1      16.680  52.184  13.508  1.00  0.00     0.043 A 
ATOM      4  C   UNL     1      17.699  52.145  12.578  1.00  0.00     0.026 A 
ATOM      5  C   UNL     1      17.748  53.046  11.504  1.00  0.00     0.008 A 
ATOM      6  C   UNL     1      16.739  54.018  11.314  1.00  0.00    -0.027 A 
ATOM      7  C   UNL     1      16.912  54.912  10.105  1.00  0.00     0.046 C 
ENDROOT
BRANCH   1   8
ATOM      8  N   UNL     1      14.657  55.013  12.152  1.00  0.00    -0.324 N 
ATOM      9  H   UNL     1      13.782  54.709  11.749  1.00  0.00     0.170 HD
BRANCH   8  10
ATOM     10  C   UNL     1      14.757  56.291  12.564  1.00  0.00     0.227 A 
ATOM     11  C   UNL     1      13.857  58.485  12.739  1.00  0.00     0.077 A 
ATOM     12  N   UNL     1      13.795  57.181  12.336  1.00  0.00    -0.213 NA
ATOM     13  C   UNL     1      15.001  58.914  13.435  1.00  0.00     0.049 A 
ATOM     14  C   UNL     1      16.022  57.980  13.679  1.00  0.00     0.117 A 
ATOM     15  N   UNL     1      15.877  56.704  13.241  1.00  0.00    -0.221 NA
BRANCH  11  16
ATOM     16  C   UNL     1      12.747  59.353  12.424  1.00  0.00     0.019 A 
ATOM     17  C   UNL     1      11.565  61.497  12.511  1.00  0.00     0.021 A 
ATOM     18  C   UNL     1      10.533  60.929  11.737  1.00  0.00     0.111 A 
ATOM     19  C   UNL     1      12.682  60.695  12.855  1.00  0.00     0.013 A 
ATOM     20  N   UNL     1      10.615  59.639  11.334  1.00  0.00    -0.264 NA
ATOM     21  C   UNL     1      11.674  58.845  11.648  1.00  0.00     0.121 A 
ENDBRANCH  11  16
ENDBRANCH   8  10
ENDBRANCH   1   8
BRANCH   3  22
ATOM     22  N   UNL     1      16.661  51.228  14.538  1.00  0.00    -0.322 N 
ATOM     23  H   UNL     1      17.421  50.563  14.518  1.00  0.00     0.170 HD
ATOM     24  C   UNL     1      15.795  51.065  15.535  1.00  0.00     0.257 C 
ATOM     25  O   UNL     1      14.823  51.786  15.735  1.00  0.00    -0.269 OA
BRANCH  24  26
ATOM     26  C   UNL     1      15.966  49.919  16.430  1.00  0.00     0.058 A 
ATOM     27  C   UNL     1      14.821  49.273  16.984  1.00  0.00     0.017 A 
ATOM     28  C   UNL     1      17.236  49.411  16.749  1.00  0.00     0.124 A 
ATOM     29  C   UNL     1      14.974  48.155  17.836  1.00  0.00     0.021 A 
ATOM     30  N   UNL     1      17.363  48.325  17.574  1.00  0.00    -0.264 NA
ATOM     31  C   UNL     1      16.282  47.688  18.121  1.00  0.00     0.111 A 
ENDBRANCH  24  26
ENDBRANCH   3  22
TORSDOF 5
