REMARK SMILES Cc1ccc(NC(=O)c2ccc(CN3CCN(C)CC3)cc2)cc1Nc1nccc(-c2cccnc2)n1
REMARK SMILES IDX 24 1 2 2 3 3 4 4 5 5 23 6 1 7 25 8 26 9 30 10 29 11 37 12
REMARK SMILES IDX 28 13 27 14 31 15 33 16 32 17 34 18 35 19 36 20 6 21 7 22
REMARK SMILES IDX 8 23 9 24 10 25 22 26 11 27 21 28 12 29 13 30 14 31 15 32
REMARK SMILES IDX 20 33 16 34 19 35 17 36 18 37
REMARK H PARENT
REMARK Flexibility Score: inf
ROOT
ATOM      1  C   UNL     1      15.822  54.641  12.322  1.00  0.00     0.046 A 
ATOM      2  C   UNL     1      16.950  54.502  11.393  1.00  0.00    -0.027 A 
ATOM      3  C   UNL     1      17.915  53.471  11.648  1.00  0.00    -0.055 A 
ATOM      4  C   UNL     1      17.774  52.597  12.786  1.00  0.00    -0.038 A 
ATOM      5  C   UNL     1      16.678  52.727  13.688  1.00  0.00     0.043 A 
ATOM      6  C   UNL     1      15.698  53.772  13.436  1.00  0.00    -0.015 A 
ATOM      7  C   UNL     1      17.148  55.406  10.154  1.00  0.00    -0.038 C 
ENDROOT
BRANCH   1   8
ATOM      8  N   UNL     1      14.852  55.627  12.128  1.00  0.00    -0.324 N 
BRANCH   8   9
ATOM      9  C   UNL     1      15.067  56.927  12.559  1.00  0.00     0.227 A 
ATOM     10  C   UNL     1      14.238  59.155  12.712  1.00  0.00     0.077 A 
ATOM     11  C   UNL     1      15.433  59.579  13.383  1.00  0.00    -0.017 A 
ATOM     12  N   UNL     1      14.101  57.840  12.327  1.00  0.00    -0.213 NA
ATOM     13  C   UNL     1      16.428  58.603  13.615  1.00  0.00     0.033 A 
ATOM     14  N   UNL     1      16.232  57.303  13.202  1.00  0.00    -0.221 NA
BRANCH  10  15
ATOM     15  C   UNL     1      13.097  60.070  12.392  1.00  0.00     0.019 A 
ATOM     16  C   UNL     1      11.879  62.272  12.570  1.00  0.00    -0.043 A 
ATOM     17  C   UNL     1      13.002  61.429  12.910  1.00  0.00    -0.050 A 
ATOM     18  C   UNL     1      10.858  61.734  11.710  1.00  0.00     0.027 A 
ATOM     19  N   UNL     1      10.961  60.425  11.216  1.00  0.00    -0.264 NA
ATOM     20  C   UNL     1      12.031  59.591  11.525  1.00  0.00     0.036 A 
ENDBRANCH  10  15
ENDBRANCH   8   9
ENDBRANCH   1   8
BRANCH   5  21
ATOM     21  N   UNL     1      16.600  51.810  14.798  1.00  0.00    -0.322 N 
ATOM     22  C   UNL     1      15.629  51.747  15.784  1.00  0.00     0.255 C 
ATOM     23  O   UNL     1      14.789  52.612  15.983  1.00  0.00    -0.269 OA
BRANCH  22  24
ATOM     24  C   UNL     1      15.595  50.558  16.689  1.00  0.00     0.040 A 
ATOM     25  C   UNL     1      14.423  50.268  17.519  1.00  0.00    -0.049 A 
ATOM     26  C   UNL     1      16.751  49.689  16.748  1.00  0.00    -0.049 A 
ATOM     27  C   UNL     1      14.423  49.124  18.396  1.00  0.00    -0.057 A 
ATOM     28  C   UNL     1      16.747  48.568  17.608  1.00  0.00    -0.057 A 
ATOM     29  C   UNL     1      15.600  48.260  18.446  1.00  0.00    -0.034 A 
BRANCH  29  30
ATOM     30  C   UNL     1      15.696  47.030  19.368  1.00  0.00     0.023 C 
BRANCH  30  31
ATOM     31  N   UNL     1      16.917  46.907  20.219  1.00  0.00    -0.297 NA
ATOM     32  C   UNL     1      17.097  48.140  21.070  1.00  0.00     0.011 C 
ATOM     33  C   UNL     1      16.877  45.658  21.104  1.00  0.00     0.011 C 
ATOM     34  C   UNL     1      18.375  48.041  21.949  1.00  0.00     0.011 C 
ATOM     35  C   UNL     1      18.172  45.533  21.971  1.00  0.00     0.011 C 
ATOM     36  N   UNL     1      18.337  46.794  22.821  1.00  0.00    -0.304 NA
ATOM     37  C   UNL     1      19.522  46.655  23.680  1.00  0.00    -0.013 C 
ENDBRANCH  30  31
ENDBRANCH  29  30
ENDBRANCH  22  24
ENDBRANCH   5  21
TORSDOF 7
