REMARK SMILES CC(O)N(C)[C@H](CO)C(O)N[C@H](C)C(O)NCC(O)N(C)[C@H]1C2CCC(O)C(C2)[C@@H]2CC(CCC2O)C[C@@H](C(O)O)N2C34OC25[C@]32C[C@]45N2C1O
REMARK SMILES IDX 17 1 18 2 19 3 20 4 21 5 22 6 50 7 51 8 49 9 46 10 48 11
REMARK SMILES IDX 47 12 43 13 45 14 42 15 44 16 38 17 37 18 32 19 31 20 33 21
REMARK SMILES IDX 30 22 34 23 35 24 36 26 39 27 40 28 41 29 23 30 29 31 24 32
REMARK SMILES IDX 28 33 25 34 26 35 27 37 16 38 14 39 15 40 12 41 13 42 11 43
REMARK SMILES IDX 9 44 10 45 6 46 4 47 5 48 2 49 3 50 1 51 7 52 8 53
REMARK H PARENT
REMARK Flexibility Score: 80.00
ROOT
ATOM      1  C   UNL     1      -4.235  49.704   6.354  1.00  0.00     0.037 C 
ENDROOT
BRANCH   1   2
ATOM      2  C   UNL     1      -3.827  49.003   7.653  1.00  0.00     0.120 C 
ATOM      3  O   UNL     1      -4.005  49.549   8.740  1.00  0.00    -0.377 OA
BRANCH   2   4
ATOM      4  N   UNL     1      -3.237  47.816   7.523  1.00  0.00    -0.273 NA
ATOM      5  C   UNL     1      -2.992  47.332   6.155  1.00  0.00    -0.010 C 
BRANCH   4   6
ATOM      6  C   UNL     1      -2.849  47.062   8.725  1.00  0.00     0.054 C 
BRANCH   6   7
ATOM      7  C   UNL     1      -1.330  47.014   8.911  1.00  0.00     0.124 C 
ATOM      8  O   UNL     1      -0.557  47.404   8.038  1.00  0.00    -0.377 OA
BRANCH   7   9
ATOM      9  N   UNL     1      -0.963  46.471  10.069  1.00  0.00    -0.249 NA
ATOM     10  C   UNL     1       0.427  46.254  10.496  1.00  0.00     0.116 C 
ATOM     11  C   UNL     1       0.427  46.254  10.496  1.00  0.00     0.116 C 
ATOM     12  C   UNL     1       0.902  47.417  11.371  1.00  0.00     0.001 C 
ATOM     13  C   UNL     1       0.428  44.954  11.303  1.00  0.00     0.173 C 
ATOM     14  C   UNL     1       0.428  44.954  11.303  1.00  0.00     0.173 C 
ATOM     15  N   UNL     1       1.018  43.916  10.718  1.00  0.00    -0.232 NA
ATOM     16  O   UNL     1      -0.120  44.902  12.403  1.00  0.00    -0.330 OA
BRANCH  15  17
ATOM     17  C   UNL     1       1.096  42.581  11.333  1.00  0.00     0.066 C 
BRANCH  17  18
ATOM     18  C   UNL     1       1.300  41.509  10.257  1.00  0.00    -0.030 C 
BRANCH  18  19
ATOM     19  C   UNL     1       0.133  41.399   9.271  1.00  0.00    -0.039 C 
ATOM     20  C   UNL     1      -0.913  42.315   9.301  1.00  0.00    -0.045 C 
ATOM     21  C   UNL     1       0.120  40.384   8.316  1.00  0.00    -0.048 C 
ATOM     22  C   UNL     1      -1.967  42.242   8.395  1.00  0.00    -0.010 C
ATOM     23  C   UNL     1      -0.931  40.299   7.408  1.00  0.00    -0.026 C 
ATOM     24  C   UNL     1      -1.973  41.222   7.443  1.00  0.00     0.057 C 
ATOM     25  C   UNL     1      -2.922  43.253   8.413  1.00  0.00     0.000 C
ATOM     26  O   UNL     1      -2.982  41.129   6.538  1.00  0.00    -0.393 OA
ENDBRANCH  18  19
ENDBRANCH  17  18
BRANCH  17  27
ATOM     27  C   UNL     1       2.235  42.503  12.352  1.00  0.00     0.167 C 
ATOM     28  O   UNL     1       2.276  41.577  13.161  1.00  0.00    -0.367 OA
ATOM     29  O   UNL     1       3.117  43.360  12.371  1.00  0.00    -0.367 OA
ENDBRANCH  17  27
ENDBRANCH  15  17
ENDBRANCH   7   9
ENDBRANCH   6   7
BRANCH   6  30
ATOM     30  C   UNL     1      -3.380  45.629   8.617  1.00  0.00    -0.021 C 
ATOM     31  C   UNL     1      -2.483  44.569   8.523  1.00  0.00    -0.043 C 
ATOM     32  C   UNL     1      -4.747  45.371   8.595  1.00  0.00    -0.046 C 
ATOM     33  C   UNL     1      -2.922  43.253   8.413  1.00  0.00    -0.010 C
ATOM     34  C   UNL     1      -5.196  44.058   8.473  1.00  0.00    -0.026 C 
ATOM     35  C   UNL     1      -4.294  43.002   8.380  1.00  0.00     0.057 C 
ATOM     36  C   UNL     1      -1.967  42.242   8.395  1.00  0.00     0.000 C
ATOM     37  O   UNL     1      -4.762  41.730   8.261  1.00  0.00    -0.393 OA
ENDBRANCH   6  30
ENDBRANCH   4   6
ENDBRANCH   2   4
ENDBRANCH   1   2
BRANCH   1  38
ATOM     38  N   UNL     1      -4.802  51.041   6.588  1.00  0.00    -0.287 NA
BRANCH  38  39
ATOM     39  C   UNL     1      -4.088  52.022   7.129  1.00  0.00     0.120 C 
ATOM     40  O   UNL     1      -2.923  51.890   7.503  1.00  0.00    -0.377 OA
BRANCH  39  41
ATOM     41  C   UNL     1      -4.795  53.370   7.271  1.00  0.00     0.046 C 
ATOM     42  C   UNL     1      -5.327  53.534   8.697  1.00  0.00    -0.046 C 
BRANCH  41  43
ATOM     43  N   UNL     1      -3.785  54.397   6.973  1.00  0.00    -0.284 NA
BRANCH  43  44
ATOM     44  C   UNL     1      -3.533  54.826   5.738  1.00  0.00     0.123 C 
ATOM     45  O   UNL     1      -4.146  54.454   4.738  1.00  0.00    -0.377 OA
BRANCH  44  46
ATOM     46  C   UNL     1      -2.404  55.856   5.639  1.00  0.00     0.074 C 
BRANCH  46  47
ATOM     47  N   UNL     1      -2.667  56.911   4.646  1.00  0.00    -0.273 NA
ATOM     48  C   UNL     1      -3.410  56.699   3.392  1.00  0.00    -0.010 C 
BRANCH  47  49
ATOM     49  C   UNL     1      -2.183  58.132   4.867  1.00  0.00     0.104 C 
ATOM     50  O   UNL     1      -1.518  58.417   5.864  1.00  0.00    -0.379 OA
ATOM     51  C   UNL     1      -2.472  59.206   3.813  1.00  0.00    -0.025 C 
ENDBRANCH  47  49
ENDBRANCH  46  47
BRANCH  46  52
ATOM     52  C   UNL     1      -1.099  55.135   5.291  1.00  0.00     0.063 C 
ATOM     53  O   UNL     1      -1.185  54.582   3.975  1.00  0.00    -0.395 OA
ENDBRANCH  46  52
ENDBRANCH  44  46
ENDBRANCH  43  44
ENDBRANCH  41  43
ENDBRANCH  39  41
ENDBRANCH  38  39
ENDBRANCH   1  38
TORSDOF 13
