REMARK SMILES CC(=O)N(C)[C@H](CO)C(=O)N[C@H](C)C(=O)NCC(=O)N(C)[C@@H]1C(=O)N[C@@H](C)C(=O)N[C@H](C(=O)[O-])Cc2ccc(O)c(c2)-c2cc1ccc2O
REMARK SMILES IDX 18 1 19 2 17 3 16 4 14 5 15 6 12 7 13 8 11 9 9 10 10 11 6 12
REMARK SMILES IDX 4 13 5 14 2 15 3 16 1 17 7 18 8 19 20 20 21 21 22 22 23 23
REMARK SMILES IDX 24 24 25 25 26 26 27 27 45 29 44 30 46 31 43 32 47 33 48 34
REMARK SMILES IDX 49 35 41 36 42 37 39 38 36 39 38 40 40 41 37 42 35 43 31 44
REMARK SMILES IDX 30 45 28 46 29 47 32 49 33 50 34 51
REMARK H PARENT
REMARK Flexibility Score: 80.00
ROOT
ATOM      1  C   UNL     1      -3.827  49.003   7.653  1.00  0.00     0.242 C 
ATOM      2  O   UNL     1      -4.005  49.549   8.740  1.00  0.00    -0.273 OA
ENDROOT
BRANCH   1   3
ATOM      3  C   UNL     1      -4.235  49.704   6.354  1.00  0.00     0.097 C 
BRANCH   3   4
ATOM      4  N   UNL     1      -4.802  51.041   6.588  1.00  0.00    -0.345 N 
ATOM      5  C   UNL     1      -4.088  52.022   7.129  1.00  0.00     0.242 C 
ATOM      6  O   UNL     1      -2.923  51.890   7.503  1.00  0.00    -0.273 OA
BRANCH   5   7
ATOM      7  C   UNL     1      -4.795  53.370   7.271  1.00  0.00     0.105 C 
ATOM      8  C   UNL     1      -5.327  53.534   8.697  1.00  0.00    -0.036 C 
BRANCH   7   9
ATOM      9  N   UNL     1      -3.785  54.397   6.973  1.00  0.00    -0.343 N 
ATOM     10  C   UNL     1      -3.533  54.826   5.738  1.00  0.00     0.245 C 
ATOM     11  O   UNL     1      -4.146  54.454   4.738  1.00  0.00    -0.273 OA
BRANCH  10  12
ATOM     12  C   UNL     1      -2.404  55.856   5.639  1.00  0.00     0.133 C 
BRANCH  12  13
ATOM     13  N   UNL     1      -2.667  56.911   4.646  1.00  0.00    -0.332 N 
ATOM     14  C   UNL     1      -3.410  56.699   3.392  1.00  0.00     0.010 C 
BRANCH  13  15
ATOM     15  C   UNL     1      -2.183  58.132   4.867  1.00  0.00     0.219 C 
ATOM     16  O   UNL     1      -1.518  58.417   5.864  1.00  0.00    -0.275 OA
ATOM     17  C   UNL     1      -2.472  59.206   3.813  1.00  0.00     0.015 C 
ENDBRANCH  13  15
ENDBRANCH  12  13
BRANCH  12  18
ATOM     18  C   UNL     1      -1.099  55.135   5.291  1.00  0.00     0.073 C 
ATOM     19  O   UNL     1      -1.185  54.582   3.975  1.00  0.00    -0.394 OA
ENDBRANCH  12  18
ENDBRANCH  10  12
ENDBRANCH   7   9
ENDBRANCH   5   7
ENDBRANCH   3   4
ENDBRANCH   1   3
BRANCH   1  20
ATOM     20  N   UNL     1      -3.237  47.816   7.523  1.00  0.00    -0.328 N 
ATOM     21  C   UNL     1      -2.992  47.332   6.155  1.00  0.00     0.010 C 
BRANCH  20  22
ATOM     22  C   UNL     1      -2.849  47.062   8.725  1.00  0.00     0.136 C 
BRANCH  22  23
ATOM     23  C   UNL     1      -1.330  47.014   8.911  1.00  0.00     0.248 C 
ATOM     24  O   UNL     1      -0.557  47.404   8.038  1.00  0.00    -0.272 OA
ATOM     25  N   UNL     1      -0.963  46.471  10.069  1.00  0.00    -0.342 N 
BRANCH  25  26
ATOM     26  C   UNL     1       0.427  46.254  10.496  1.00  0.00     0.105 CG0
ATOM     27  C   UNL     1       0.902  47.417  11.371  1.00  0.00    -0.036 C 
ATOM     28  G   UNL     1       0.428  44.954  11.303  1.00  0.00     0.000 G0
ENDBRANCH  25  26
ENDBRANCH  22  23
BRANCH  22  29
ATOM     29  C   UNL     1      -3.380  45.629   8.617  1.00  0.00    -0.015 A 
ATOM     30  C   UNL     1      -2.483  44.569   8.523  1.00  0.00    -0.045 A 
ATOM     31  C   UNL     1      -4.747  45.371   8.595  1.00  0.00    -0.053 A 
ATOM     32  C   UNL     1      -2.922  43.253   8.413  1.00  0.00     0.028 A 
ATOM     33  C   UNL     1      -5.196  44.058   8.473  1.00  0.00    -0.019 A 
ATOM     34  C   UNL     1      -4.294  43.002   8.380  1.00  0.00     0.123 A 
ATOM     35  O   UNL     1      -4.762  41.730   8.261  1.00  0.00    -0.507 OA
BRANCH  32  36
ATOM     36  C   UNL     1      -1.967  42.242   8.395  1.00  0.00     0.027 A 
ATOM     37  C   UNL     1      -0.913  42.315   9.301  1.00  0.00    -0.047 A 
ATOM     38  C   UNL     1      -1.973  41.222   7.443  1.00  0.00     0.123 A 
ATOM     39  C   UNL     1       0.133  41.399   9.271  1.00  0.00    -0.045 A 
ATOM     40  C   UNL     1      -0.931  40.299   7.408  1.00  0.00    -0.019 A 
ATOM     41  O   UNL     1      -2.982  41.129   6.538  1.00  0.00    -0.507 OA
ATOM     42  C   UNL     1       0.120  40.384   8.316  1.00  0.00    -0.055 A 
BRANCH  39  43
ATOM     43  C   UNL     1       1.300  41.509  10.257  1.00  0.00    -0.002 C 
BRANCH  43  44
ATOM     44  C   UNL     1       1.096  42.581  11.333  1.00  0.00     0.073 C 
BRANCH  44  45
ATOM     45  N   UNL     1       1.018  43.916  10.718  1.00  0.00    -0.346 N 
ATOM     46  C   UNL     1       0.428  44.954  11.303  1.00  0.00     0.242 CG0
ATOM     47  O   UNL     1      -0.120  44.902  12.403  1.00  0.00    -0.273 OA
ATOM     48  G   UNL     1       0.427  46.254  10.496  1.00  0.00     0.000 G0
ENDBRANCH  44  45
BRANCH  44  49
ATOM     49  C   UNL     1       2.235  42.503  12.352  1.00  0.00     0.064 C 
ATOM     50  O   UNL     1       2.276  41.577  13.161  1.00  0.00    -0.548 OA
ATOM     51  O   UNL     1       3.117  43.360  12.371  1.00  0.00    -0.548 OA
ENDBRANCH  44  49
ENDBRANCH  43  44
ENDBRANCH  39  43
ENDBRANCH  32  36
ENDBRANCH  22  29
ENDBRANCH  20  22
ENDBRANCH   1  20
TORSDOF 11
