REMARK SMILES CC(C)(C)c1cc(NC(=O)Nc2cccc(Cl)c2Cl)n(-c2ccc3c(c2)C[C@@H](C(:O):O)NC3)n1
REMARK SMILES IDX 34 1 20 2 7 3 6 4 5 5 8 6 11 8 9 9 10 10 12 12 18 13 13 14
REMARK SMILES IDX 16 15 19 16 14 17 17 18 15 19 21 20 22 21 26 22 23 23 25 24
REMARK SMILES IDX 24 25 27 26 33 27 28 28 32 29 29 31 30 32 31 33 2 34 1 35
REMARK SMILES IDX 3 36 4 37
REMARK H PARENT 11 7 8 11 32 30
REMARK Flexibility Score: inf
ROOT
ATOM      1  N   UNL     1      21.173  25.217  13.341  1.00  0.00    -0.170 NA
ATOM      2  N   UNL     1      20.934  24.113  12.510  1.00  0.00    -0.217 N 
ATOM      3  C   UNL     1      19.648  23.727  12.492  1.00  0.00     0.138 A 
ATOM      4  C   UNL     1      18.957  24.563  13.376  1.00  0.00     0.005 A 
ATOM      5  C   UNL     1      19.935  25.448  13.845  1.00  0.00     0.070 A 
ENDROOT
BRANCH   3   6
ATOM      6  N   UNL     1      19.289  22.658  11.767  1.00  0.00    -0.292 N 
ATOM      7  H   UNL     1      18.484  20.762  10.449  1.00  0.00     0.171 HD
ATOM      8  N   UNL     1      17.713  21.349  10.734  1.00  0.00    -0.306 N 
ATOM      9  C   UNL     1      18.007  22.446  11.454  1.00  0.00     0.324 C 
ATOM     10  O   UNL     1      17.135  23.251  11.786  1.00  0.00    -0.248 OA
ATOM     11  H   UNL     1      19.994  22.006  11.454  1.00  0.00     0.173 HD
BRANCH   8  12
ATOM     12  C   UNL     1      16.454  20.960  10.354  1.00  0.00     0.063 A 
ATOM     13  C   UNL     1      16.168  19.597  10.390  1.00  0.00     0.083 A 
ATOM     14  C   UNL     1      15.429  21.819   9.959  1.00  0.00    -0.037 A 
ATOM     15  C   UNL     1      14.947  19.020  10.059  1.00  0.00     0.061 A 
ATOM     16  Cl  UNL     1      17.492  18.577  10.916  1.00  0.00    -0.080 Cl
ATOM     17  C   UNL     1      14.188  21.272   9.620  1.00  0.00    -0.059 A 
ATOM     18  Cl  UNL     1      14.668  17.221  10.110  1.00  0.00    -0.083 Cl
ATOM     19  C   UNL     1      13.935  19.890   9.666  1.00  0.00    -0.042 A 
ENDBRANCH   8  12
ENDBRANCH   3   6
BRANCH   2  20
ATOM     20  C   UNL     1      21.968  23.620  11.824  1.00  0.00     0.067 A 
ATOM     21  C   UNL     1      23.156  23.309  12.483  1.00  0.00    -0.036 A 
ATOM     22  C   UNL     1      21.981  23.444  10.434  1.00  0.00    -0.033 A 
ATOM     23  C   UNL     1      24.265  22.856  11.809  1.00  0.00    -0.055 A 
ATOM     24  C   UNL     1      23.084  22.983   9.733  1.00  0.00    -0.039 A 
ATOM     25  C   UNL     1      24.229  22.679  10.443  1.00  0.00    -0.031 A 
ATOM     26  C   UNL     1      22.955  22.824   8.228  1.00  0.00    -0.001 C 
ATOM     27  C   UNL     1      25.472  22.151   9.782  1.00  0.00     0.022 C 
ATOM     28  C   UNL     1      24.127  22.068   7.605  1.00  0.00     0.115 C 
ATOM     29  N   UNL     1      25.333  22.363   8.357  1.00  0.00    -0.300 NA
ATOM     30  H   UNL     1      25.516  23.345   8.207  1.00  0.00     0.123 HD
BRANCH  28  31
ATOM     31  C   UNL     1      24.385  22.470   6.167  1.00  0.00     0.372 C 
ATOM     32  O   UNL     1      25.468  23.055   5.973  1.00  0.00    -0.246 OA
ATOM     33  O   UNL     1      23.581  22.242   5.224  1.00  0.00    -0.246 OA
ENDBRANCH  28  31
ENDBRANCH   2  20
BRANCH   5  34
ATOM     34  C   UNL     1      19.634  26.572  14.815  1.00  0.00     0.006 C 
ATOM     35  C   UNL     1      19.242  25.995  16.171  1.00  0.00    -0.054 C 
ATOM     36  C   UNL     1      18.511  27.432  14.246  1.00  0.00    -0.054 C 
ATOM     37  C   UNL     1      20.825  27.490  15.004  1.00  0.00    -0.054 C 
ENDBRANCH   5  34
TORSDOF 5
