REMARK SMILES CC1(C)S[C@H]([C@@H](CO)[C]([O-])O)N[C@H]1[C]([O-])O
REMARK SMILES IDX 4 1 12 2 2 3 13 4 5 5 1 6 3 7 6 8 7 9 8 10 9 11 11 12 10 13
REMARK SMILES IDX 14 14 16 15 15 16
REMARK H PARENT
REMARK INDEX MAP 1 1 7 2 8 3 9 4 10 5 12 6 13 7 11 8 15 9 3 10 16 11 5 12 6 13
REMARK INDEX MAP 14 14 2 15 4 16
REMARK Flexibility Score: inf
ROOT
ATOM      1  S   UNL     1       0.061  -0.256   1.328  1.00  0.00    -0.135 SA
ATOM      2  N   UNL     1       0.540   0.095  -1.276  1.00  0.00    -0.299 NA
ATOM      3  C   UNL     1       1.507  -1.108   0.602  1.00  0.00     0.029 C 
ATOM      4  C   UNL     1       1.819  -0.280  -0.661  1.00  0.00     0.037 C 
ATOM      5  C   UNL     1      -0.358   0.591  -0.230  1.00  0.00     0.061 C 
ATOM      6  C   UNL     1       1.076  -2.537   0.231  1.00  0.00    -0.049 C 
ATOM      7  C   UNL     1       2.658  -1.166   1.607  1.00  0.00    -0.049 C 
ENDROOT
BRANCH   5   8
ATOM      8  C   UNL     1      -1.805   0.326  -0.615  1.00  0.00     0.022 C 
BRANCH   8   9
ATOM      9  C   UNL     1      -2.027  -1.163  -0.892  1.00  0.00     0.050 C 
ATOM     10  O   UNL     1      -3.378  -1.373  -1.287  1.00  0.00    -0.396 OA
ENDBRANCH   8   9
BRANCH   8  11
ATOM     11  C   UNL     1      -2.716   0.817   0.500  1.00  0.00     0.012 C 
ATOM     12  O   UNL     1      -2.559   2.145   0.742  1.00  0.00    -0.405 OA
ATOM     13  O   UNL     1      -3.499   0.117   1.129  1.00  0.00    -0.827 OA
ENDBRANCH   8  11
ENDBRANCH   5   8
BRANCH   4  14
ATOM     14  C   UNL     1       2.611   0.980  -0.436  1.00  0.00     0.023 C 
ATOM     15  O   UNL     1       3.938   0.743  -0.577  1.00  0.00    -0.404 OA
ATOM     16  O   UNL     1       2.131   2.071  -0.164  1.00  0.00    -0.826 OA
ENDBRANCH   4  14
TORSDOF 4
