REMARK SMILES O=C(O)c1ccc(CCCNS(=O)(=O)c2ccsc2C(=O)O)cc1
REMARK SMILES IDX 10 1 11 2 12 4 13 5 14 6 15 7 19 8 16 9 18 10 17 11 20 12
REMARK SMILES IDX 21 13 22 14 9 16 8 17 7 18 6 19 23 20 5 21 24 22 4 23 2 24
REMARK SMILES IDX 1 25 3 26
REMARK H PARENT 11 3 22 15 3 27
REMARK Flexibility Score: inf
ROOT
ATOM      1  C   UNL     1      23.337   5.657  13.383  1.00  0.00     0.011 C 
ENDROOT
BRANCH   1   2
ATOM      2  N   UNL     1      23.846   4.933  14.568  1.00  0.00    -0.211 NA
ATOM      3  H   UNL     1      23.151   4.843  15.320  1.00  0.00     0.141 HD
BRANCH   2   4
ATOM      4  S   UNL     1      25.467   5.117  15.044  1.00  0.00     0.242 S 
ATOM      5  O   UNL     1      26.336   4.821  13.921  1.00  0.00    -0.207 OA
ATOM      6  O   UNL     1      25.663   4.446  16.314  1.00  0.00    -0.207 OA
BRANCH   4   7
ATOM      7  C   UNL     1      25.558   6.854  15.358  1.00  0.00     0.107 A 
ATOM      8  C   UNL     1      24.867   7.506  16.356  1.00  0.00     0.132 A 
ATOM      9  C   UNL     1      26.366   7.747  14.596  1.00  0.00    -0.030 A 
ATOM     10  S   UNL     1      25.194   9.187  16.371  1.00  0.00    -0.136 S 
ATOM     11  C   UNL     1      26.262   9.047  15.040  1.00  0.00    -0.007 A 
BRANCH   8  12
ATOM     12  C   UNL     1      23.961   6.978  17.326  1.00  0.00     0.347 C 
ATOM     13  O   UNL     1      23.619   5.781  17.447  1.00  0.00    -0.245 OA
BRANCH  12  14
ATOM     14  O   UNL     1      23.454   7.928  18.175  1.00  0.00    -0.477 OA
ATOM     15  H   UNL     1      22.836   7.537  18.829  1.00  0.00     0.297 HD
ENDBRANCH  12  14
ENDBRANCH   8  12
ENDBRANCH   4   7
ENDBRANCH   2   4
ENDBRANCH   1   2
BRANCH   1  16
ATOM     16  C   UNL     1      22.229   4.857  12.707  1.00  0.00    -0.035 C 
BRANCH  16  17
ATOM     17  C   UNL     1      22.710   3.487  12.218  1.00  0.00    -0.027 C 
BRANCH  17  18
ATOM     18  C   UNL     1      21.597   2.707  11.565  1.00  0.00    -0.048 A 
ATOM     19  C   UNL     1      20.793   1.864  12.332  1.00  0.00    -0.058 A 
ATOM     20  C   UNL     1      21.370   2.829  10.194  1.00  0.00    -0.058 A 
ATOM     21  C   UNL     1      19.763   1.143  11.728  1.00  0.00    -0.047 A 
ATOM     22  C   UNL     1      20.340   2.108   9.590  1.00  0.00    -0.047 A 
ATOM     23  C   UNL     1      19.537   1.265  10.357  1.00  0.00     0.059 A 
BRANCH  23  24
ATOM     24  C   UNL     1      18.462   0.513   9.727  1.00  0.00     0.335 C 
ATOM     25  O   UNL     1      17.693  -0.259  10.308  1.00  0.00    -0.246 OA
BRANCH  24  26
ATOM     26  O   UNL     1      18.379   0.748   8.389  1.00  0.00    -0.478 OA
ATOM     27  H   UNL     1      17.651   0.236   7.974  1.00  0.00     0.297 HD
ENDBRANCH  24  26
ENDBRANCH  23  24
ENDBRANCH  17  18
ENDBRANCH  16  17
ENDBRANCH   1  16
TORSDOF 10
