REMARK SMILES O=S(=O)(NCCCc1ccc(C(:O):O)cc1)c1ccsc1C(:O):O
REMARK SMILES IDX 5 1 6 2 7 3 8 4 9 5 10 6 11 7 16 8 15 9 12 10 13 11 14 12
REMARK SMILES IDX 4 13 2 14 1 15 3 16 17 17 18 18 21 19 19 20 20 21 22 22
REMARK SMILES IDX 23 23 24 24
REMARK H PARENT
REMARK Flexibility Score: inf
ROOT
ATOM      1  C   UNL     1      23.238   5.024  13.557  1.00  0.00     0.011 C 
ENDROOT
BRANCH   1   2
ATOM      2  C   UNL     1      23.197   4.109  12.262  1.00  0.00    -0.035 C 
BRANCH   2   3
ATOM      3  C   UNL     1      22.641   4.784  10.967  1.00  0.00    -0.027 C 
BRANCH   3   4
ATOM      4  C   UNL     1      21.391   4.026  10.474  1.00  0.00    -0.048 A 
ATOM      5  C   UNL     1      20.999   3.820   9.125  1.00  0.00    -0.058 A 
ATOM      6  C   UNL     1      19.825   3.087   8.782  1.00  0.00    -0.047 A 
ATOM      7  C   UNL     1      19.050   2.575   9.849  1.00  0.00     0.064 A 
ATOM      8  C   UNL     1      20.563   3.515  11.447  1.00  0.00    -0.058 A 
ATOM      9  C   UNL     1      19.435   2.790  11.147  1.00  0.00    -0.047 A 
BRANCH   7  10
ATOM     10  C   UNL     1      17.711   1.783   9.701  1.00  0.00     0.386 C 
ATOM     11  O   UNL     1      17.326   1.145  10.724  1.00  0.00    -0.242 OA
ATOM     12  O   UNL     1      17.078   1.874   8.591  1.00  0.00    -0.242 OA
ENDBRANCH   7  10
ENDBRANCH   3   4
ENDBRANCH   2   3
ENDBRANCH   1   2
BRANCH   1  13
ATOM     13  N   UNL     1      24.301   4.602  14.515  1.00  0.00    -0.211 NA
BRANCH  13  14
ATOM     14  S   UNL     1      25.768   5.561  14.529  1.00  0.00     0.242 S 
ATOM     15  O   UNL     1      25.766   6.305  13.210  1.00  0.00    -0.207 OA
ATOM     16  O   UNL     1      27.007   4.736  14.730  1.00  0.00    -0.207 OA
BRANCH  14  17
ATOM     17  C   UNL     1      25.621   6.628  15.896  1.00  0.00     0.108 A 
ATOM     18  C   UNL     1      25.662   7.974  15.732  1.00  0.00    -0.030 A 
ATOM     19  C   UNL     1      25.415   6.219  17.235  1.00  0.00     0.137 A 
ATOM     20  C   UNL     1      25.488   8.716  16.855  1.00  0.00    -0.007 A 
ATOM     21  S   UNL     1      25.273   7.645  18.197  1.00  0.00    -0.135 S 
BRANCH  19  22
ATOM     22  C   UNL     1      25.292   4.839  17.880  1.00  0.00     0.397 C 
ATOM     23  O   UNL     1      25.106   4.886  19.134  1.00  0.00    -0.240 OA
ATOM     24  O   UNL     1      25.386   3.794  17.191  1.00  0.00    -0.240 OA
ENDBRANCH  19  22
ENDBRANCH  14  17
ENDBRANCH  13  14
ENDBRANCH   1  13
TORSDOF 8
