REMARK SMILES CC(=O)N(C)[C@H](CO)C(=O)N[C@H](C)C(=O)NCC(=O)N(C)[C@@H]1C(=O)N[C@@H](C)C(=O)N[C@H](C(=O)O)Cc2ccc(O)c(c2)-c2cc1ccc2O
REMARK SMILES IDX 20 1 21 2 22 3 23 4 24 5 25 6 26 8 27 9 45 11 44 12 46 13
REMARK SMILES IDX 43 14 47 15 48 16 41 17 42 18 39 19 36 20 38 21 37 22 40 23
REMARK SMILES IDX 35 25 31 26 30 27 28 28 29 30 32 32 33 33 34 34 49 36 18 38
REMARK SMILES IDX 19 39 17 40 16 41 14 42 15 44 12 45 13 46 11 47 9 48 10 50
REMARK SMILES IDX 6 51 4 52 5 53 2 54 3 55 1 56 7 57 8 58
REMARK H PARENT 25 7 40 24 30 29 34 35 49 37 16 43 11 49 8 59
REMARK Flexibility Score: 80.00
ROOT
ATOM      1  N   UNL     1       0.949  48.037   6.562  1.00  0.00    -0.328 N 
ATOM      2  C   UNL     1       0.040  47.346   5.725  1.00  0.00     0.148 C 
ENDROOT
BRANCH   1   3
ATOM      3  C   UNL     1       1.611  47.303   7.614  1.00  0.00     0.204 C 
BRANCH   3   4
ATOM      4  C   UNL     1       1.581  45.820   7.700  1.00  0.00     0.248 C 
ATOM      5  O   UNL     1       2.586  45.153   7.481  1.00  0.00    -0.272 OA
ATOM      6  N   UNL     1       0.498  45.189   8.053  1.00  0.00    -0.342 N 
ATOM      7  H   UNL     1      -0.279  45.595   7.738  1.00  0.00     0.164 HD
BRANCH   6   8
ATOM      8  C   UNL     1       0.269  44.076   8.895  1.00  0.00     0.168 CG0
ATOM      9  C   UNL     1       1.233  44.047  10.121  1.00  0.00     0.041 C 
ATOM     10  G   UNL     1      -1.143  44.019   9.311  1.00  0.00     0.000 G0
ENDBRANCH   6   8
ENDBRANCH   3   4
BRANCH   3  11
ATOM     11  C   UNL     1       1.224  47.830   8.969  1.00  0.00    -0.015 A 
ATOM     12  C   UNL     1      -0.114  47.722   9.417  1.00  0.00     0.019 A 
ATOM     13  C   UNL     1       2.165  48.381   9.868  1.00  0.00     0.010 A 
ATOM     14  C   UNL     1      -0.479  47.959  10.759  1.00  0.00     0.028 A 
ATOM     15  C   UNL     1       1.796  48.736  11.179  1.00  0.00     0.047 A 
ATOM     16  C   UNL     1       0.484  48.504  11.639  1.00  0.00     0.123 A 
BRANCH  14  17
ATOM     17  C   UNL     1      -1.757  47.484  11.143  1.00  0.00     0.027 A 
ATOM     18  C   UNL     1      -1.817  46.142  11.585  1.00  0.00     0.016 A 
ATOM     19  C   UNL     1      -2.964  48.201  10.975  1.00  0.00     0.123 A 
ATOM     20  C   UNL     1      -3.040  45.452  11.733  1.00  0.00    -0.044 A 
ATOM     21  C   UNL     1      -4.195  47.553  11.202  1.00  0.00     0.047 A 
ATOM     22  C   UNL     1      -4.232  46.190  11.556  1.00  0.00     0.007 A 
BRANCH  19  23
ATOM     23  O   UNL     1      -2.954  49.402  10.601  1.00  0.00    -0.507 OA
ATOM     24  H   UNL     1      -3.707  49.845  10.486  1.00  0.00     0.293 HD
ENDBRANCH  19  23
BRANCH  20  25
ATOM     25  C   UNL     1      -3.036  43.993  12.036  1.00  0.00     0.072 C 
BRANCH  25  26
ATOM     26  C   UNL     1      -2.813  43.002  10.841  1.00  0.00     0.196 C 
BRANCH  26  27
ATOM     27  N   UNL     1      -1.576  43.131  10.170  1.00  0.00    -0.341 N 
ATOM     28  C   UNL     1      -1.143  44.019   9.311  1.00  0.00     0.242 CG0
ATOM     29  H   UNL     1      -0.946  42.479  10.401  1.00  0.00     0.164 HD
ATOM     30  O   UNL     1      -1.953  44.822   8.861  1.00  0.00    -0.273 OA
ATOM     31  G   UNL     1       0.269  44.076   8.895  1.00  0.00     0.000 G0
ENDBRANCH  26  27
BRANCH  26  32
ATOM     32  C   UNL     1      -3.992  42.804  10.002  1.00  0.00     0.326 C 
ATOM     33  O   UNL     1      -4.009  42.986   8.794  1.00  0.00    -0.250 OA
BRANCH  32  34
ATOM     34  O   UNL     1      -5.055  42.403  10.466  1.00  0.00    -0.480 OA
ATOM     35  H   UNL     1      -5.134  42.214  11.322  1.00  0.00     0.296 HD
ENDBRANCH  32  34
ENDBRANCH  26  32
ENDBRANCH  25  26
ENDBRANCH  20  25
ENDBRANCH  14  17
BRANCH  16  36
ATOM     36  O   UNL     1       0.197  48.759  12.836  1.00  0.00    -0.507 OA
ATOM     37  H   UNL     1       0.804  49.086  13.384  1.00  0.00     0.293 HD
ENDBRANCH  16  36
ENDBRANCH   3  11
ENDBRANCH   1   3
BRANCH   1  38
ATOM     38  C   UNL     1       1.202  49.346   6.375  1.00  0.00     0.242 C 
ATOM     39  O   UNL     1       2.285  49.798   6.735  1.00  0.00    -0.273 OA
BRANCH  38  40
ATOM     40  C   UNL     1       0.340  50.380   5.794  1.00  0.00     0.216 C 
BRANCH  40  41
ATOM     41  N   UNL     1      -0.741  50.665   6.620  1.00  0.00    -0.345 N 
ATOM     42  C   UNL     1      -2.001  50.898   6.407  1.00  0.00     0.242 C 
ATOM     43  H   UNL     1      -0.487  50.733   7.520  1.00  0.00     0.164 HD
ATOM     44  O   UNL     1      -2.519  51.247   7.461  1.00  0.00    -0.273 OA
BRANCH  42  45
ATOM     45  C   UNL     1      -2.818  50.876   5.182  1.00  0.00     0.168 C 
ATOM     46  C   UNL     1      -2.707  49.618   4.279  1.00  0.00     0.041 C 
BRANCH  45  47
ATOM     47  N   UNL     1      -4.182  50.895   5.503  1.00  0.00    -0.343 N 
ATOM     48  C   UNL     1      -5.101  51.805   5.617  1.00  0.00     0.245 C 
ATOM     49  H   UNL     1      -4.498  50.034   5.695  1.00  0.00     0.164 HD
ATOM     50  O   UNL     1      -6.154  51.261   5.924  1.00  0.00    -0.273 OA
BRANCH  48  51
ATOM     51  C   UNL     1      -5.125  53.267   5.495  1.00  0.00     0.199 C 
BRANCH  51  52
ATOM     52  N   UNL     1      -6.025  53.683   4.457  1.00  0.00    -0.332 N 
ATOM     53  C   UNL     1      -7.386  53.910   4.794  1.00  0.00     0.147 C 
BRANCH  52  54
ATOM     54  C   UNL     1      -5.617  53.820   3.203  1.00  0.00     0.219 C 
ATOM     55  O   UNL     1      -4.819  53.020   2.727  1.00  0.00    -0.275 OA
ATOM     56  C   UNL     1      -5.997  54.890   2.296  1.00  0.00     0.114 C 
ENDBRANCH  52  54
ENDBRANCH  51  52
BRANCH  51  57
ATOM     57  C   UNL     1      -3.786  54.070   5.523  1.00  0.00     0.191 C 
BRANCH  57  58
ATOM     58  O   UNL     1      -4.042  55.471   5.587  1.00  0.00    -0.394 OA
ATOM     59  H   UNL     1      -3.166  55.903   5.498  1.00  0.00     0.210 HD
ENDBRANCH  57  58
ENDBRANCH  51  57
ENDBRANCH  48  51
ENDBRANCH  45  47
ENDBRANCH  42  45
ENDBRANCH  40  41
ENDBRANCH  38  40
ENDBRANCH   1  38
TORSDOF 15
