REMARK  Name = 
REMARK                            x       y       z     vdW  Elec       q    Type
REMARK                         _______ _______ _______ _____ _____    ______ ____
ROOT
ATOM      1  N   UNK A  1        7.819  -5.729  -9.887  0.00  0.00    -0.288 N 
ATOM      2  C   UNK A  1        6.441  -5.838  -9.694  0.00  0.00    +0.233 C 
ATOM      3  O   UNK A  1        5.951  -6.091  -8.588  0.00  0.00    -0.274 OA
ATOM      4  C   UNK A  0        8.422  -5.499 -11.197  0.00  0.00    +0.133 C 
ENDROOT
BRANCH   1  11
ATOM      5  C   UNK A  1       11.412  -3.425  -6.483  0.00  0.00    +0.038 C 
ATOM      6  C   UNK A  1       12.048  -4.074  -7.722  0.00  0.00    +0.156 C 
ATOM      7  N   UNK A  1       11.148  -5.070  -8.323  0.00  0.00    -0.302 N 
ATOM      8  H   UNK A  1       11.421  -6.040  -8.242  0.00  0.00    +0.150 HD
ATOM      9  C   UNK A  1        9.836  -4.739  -8.664  0.00  0.00    +0.239 C 
ATOM     10  O   UNK A  1        9.538  -3.558  -8.872  0.00  0.00    -0.273 OA
ATOM     11  C   UNK A  1        8.708  -5.869  -8.707  0.00  0.00    +0.192 C 
ATOM     12  C   UNK A  1        9.196  -7.290  -8.432  0.00  0.00    -0.017 A 
ATOM     13  C   UNK A  1        9.951  -7.492  -7.266  0.00  0.00    +0.018 A 
ATOM     14  C   UNK A  1       10.850  -8.560  -7.171  0.00  0.00    +0.027 A 
ATOM     15  C   UNK A  1       10.715  -9.606  -8.093  0.00  0.00    +0.125 A 
ATOM     16  C   UNK A  1        9.752  -9.552  -9.097  0.00  0.00    +0.046 A 
ATOM     17  C   UNK A  1       12.078  -8.312  -6.396  0.00  0.00    +0.027 A 
ATOM     18  C   UNK A  1       12.118  -8.012  -5.030  0.00  0.00    +0.125 A 
ATOM     19  C   UNK A  1       13.306  -7.600  -4.419  0.00  0.00    +0.046 A 
ATOM     20  C   UNK A  1       14.464  -7.423  -5.183  0.00  0.00    +0.007 A 
ATOM     21  C   UNK A  1       14.433  -7.647  -6.560  0.00  0.00    -0.044 A 
ATOM     22  C   UNK A  1       15.576  -7.282  -7.469  0.00  0.00    +0.069 C 
ATOM     23  C   UNK A  1       15.544  -5.842  -8.057  0.00  0.00    +0.186 C 
ATOM     24  N   UNK A  1       14.204  -5.230  -8.273  0.00  0.00    -0.301 N 
ATOM     25  H   UNK A  1       13.767  -5.388  -9.174  0.00  0.00    +0.150 HD
ATOM     26  C   UNK A  1       13.258  -8.129  -7.139  0.00  0.00    +0.016 A 
ATOM     27  C   UNK A  1        9.024  -8.376  -9.296  0.00  0.00    +0.009 A 
ATOM     28  C   UNK A  1       13.429  -4.651  -7.293  0.00  0.00    +0.234 C 
ATOM     29  O   UNK A  1       13.915  -4.457  -6.176  0.00  0.00    -0.274 OA
BRANCH  23  30
ATOM     30  C   UNK A  1       16.693  -5.026  -7.414  0.00  0.00    +0.326 C 
ATOM     31  O   UNK A  2       17.857  -5.267  -7.640  0.00  0.00    -0.249 OA
BRANCH  30  32
ATOM     32  O   UNK A  2       16.338  -4.099  -6.493  0.00  0.00    -0.479 OA
ATOM     33  H   UNK A  2       15.387  -4.129  -6.253  0.00  0.00    +0.295 HD
ENDBRANCH  30  32
ENDBRANCH  23  30
BRANCH  18  34
ATOM     34  O   UNK A  1       10.962  -8.071  -4.302  0.00  0.00    -0.506 OA
ATOM     35  H   UNK A  1       11.154  -7.843  -3.377  0.00  0.00    +0.292 HD
ENDBRANCH  18  34
BRANCH  15  36
ATOM     36  O   UNK A  1       11.571 -10.673  -8.128  0.00  0.00    -0.506 OA
ATOM     37  H   UNK A  1       12.153 -10.626  -7.349  0.00  0.00    +0.292 HD
ENDBRANCH  15  36
ENDBRANCH   1  11
BRANCH   2  38
ATOM     38  C   UNK A  1        5.516  -5.625 -10.907  0.00  0.00    +0.200 C 
BRANCH  38  39
ATOM     39  N   UNK A  1        4.115  -5.821 -10.545  0.00  0.00    -0.305 N 
ATOM     40  H   UNK A  1        3.918  -6.239  -9.638  0.00  0.00    +0.149 HD
ATOM     41  C   UNK A  1        3.094  -5.614 -11.450  0.00  0.00    +0.233 C 
ATOM     42  O   UNK A  1        3.321  -5.371 -12.632  0.00  0.00    -0.274 OA
BRANCH  41  43
ATOM     43  C   UNK A  1        1.667  -5.743 -10.863  0.00  0.00    +0.156 C 
ATOM     44  C   UNK A  1        0.593  -5.557 -11.934  0.00  0.00    +0.038 C 
BRANCH  43  45
ATOM     45  N   UNK A  1        1.486  -4.790  -9.757  0.00  0.00    -0.303 N 
ATOM     46  H   UNK A  1        1.945  -3.886  -9.809  0.00  0.00    +0.149 HD
ATOM     47  C   UNK A  0        0.641  -5.059  -8.698  0.00  0.00    +0.236 C 
ATOM     48  O   UNK A  0        0.098  -6.151  -8.571  0.00  0.00    -0.274 OA
BRANCH  47  49
ATOM     49  C   UNK A  0        0.537  -3.950  -7.618  0.00  0.00    +0.187 C 
BRANCH  49  50
ATOM     50  N   UNK A  0        0.318  -2.575  -8.155  0.00  0.00    -0.291 N 
ATOM     51  C   UNK A  0       -0.802  -2.137  -8.875  0.00  0.00    +0.216 C 
ATOM     52  O   UNK A  0       -0.909  -0.972  -9.263  0.00  0.00    -0.276 OA
ATOM     53  C   UNK A  0        1.118  -1.527  -7.528  0.00  0.00    +0.133 C 
BRANCH  51  54
ATOM     54  C   UNK A  0       -1.942  -3.113  -9.105  0.00  0.00    +0.096 C 
BRANCH  54  55
ATOM     55  C   UNK A  0       -2.694  -2.960 -10.429  0.00  0.00    +0.009 C 
BRANCH  55  56
ATOM     56  C   UNK A  0       -3.820  -4.007 -10.560  0.00  0.00    +0.000 C 
BRANCH  56  57
ATOM     57  C   UNK A  0       -3.327  -5.461 -10.513  0.00  0.00    +0.000 C 
BRANCH  57  58
ATOM     58  C   UNK A  0       -4.454  -6.494 -10.645  0.00  0.00    +0.000 C 
BRANCH  58  59
ATOM     59  C   UNK A  0       -3.876  -7.920 -10.575  0.00  0.00    +0.000 C 
BRANCH  59  60
ATOM     60  C   UNK A  0       -4.934  -9.012 -10.765  0.00  0.00    +0.000 C 
BRANCH  60  61
ATOM     61  C   UNK A  0       -4.379 -10.449 -10.666  0.00  0.00    +0.003 C 
BRANCH  61  62
ATOM     62  C   UNK A  0       -3.331 -10.862 -11.726  0.00  0.00    -0.017 C 
ATOM     63  C   UNK A  0       -3.812 -10.643 -13.162  0.00  0.00    +0.007 C 
ATOM     64  C   UNK A  0       -2.906 -12.327 -11.554  0.00  0.00    +0.007 C 
ENDBRANCH  61  62
ENDBRANCH  60  61
ENDBRANCH  59  60
ENDBRANCH  58  59
ENDBRANCH  57  58
ENDBRANCH  56  57
ENDBRANCH  55  56
ENDBRANCH  54  55
ENDBRANCH  51  54
ENDBRANCH  49  50
BRANCH  49  65
ATOM     65  C   UNK A  0       -0.387  -4.360  -6.453  0.00  0.00    +0.187 C 
BRANCH  65  66
ATOM     66  O   UNK A  0       -0.201  -3.517  -5.312  0.00  0.00    -0.393 OA
ATOM     67  H   UNK A  0        0.671  -3.716  -4.930  0.00  0.00    +0.209 HD
ENDBRANCH  65  66
ENDBRANCH  49  65
ENDBRANCH  47  49
ENDBRANCH  43  45
ENDBRANCH  41  43
ENDBRANCH  38  39
ENDBRANCH   2  38
TORSDOF 22
