REMARK SMILES [O-][C](N1CCOCC1)N1CCS1([O-])[O-]
REMARK SMILES IDX 2 1 1 2 3 3 4 4 5 5 6 6 8 7 7 8 9 9 10 10 12 11 11 12 13 13
REMARK SMILES IDX 14 14
REMARK H PARENT
REMARK INDEX MAP 7 1 8 2 6 3 1 4 2 5 3 6 5 7 4 8 9 9 10 10 12 11 11 12 13 13
REMARK INDEX MAP 14 14
REMARK Flexibility Score: inf
ROOT
ATOM      1  C   UNL     1     -13.644  11.609 -10.315  1.00  0.00     0.029 C 
ATOM      2  O   UNL     1     -14.168  12.292  -9.406  1.00  0.00    -0.824 OA
ENDROOT
BRANCH   1   3
ATOM      3  N   UNL     1     -13.065  10.230 -10.073  1.00  0.00    -0.292 NA
ATOM      4  C   UNL     1     -12.180  10.152  -8.875  1.00  0.00     0.022 C 
ATOM      5  C   UNL     1     -11.793   8.699  -8.461  1.00  0.00     0.059 C 
ATOM      6  O   UNL     1     -12.146   7.707  -9.486  1.00  0.00    -0.379 OA
ATOM      7  C   UNL     1     -14.146   9.216  -9.949  1.00  0.00     0.022 C 
ATOM      8  C   UNL     1     -13.554   7.784  -9.946  1.00  0.00     0.059 C 
ENDBRANCH   1   3
BRANCH   1   9
ATOM      9  N   UNL     1     -13.552  12.086 -11.730  1.00  0.00    -0.263 NA
ATOM     10  C   UNL     1     -14.013  13.518 -11.842  1.00  0.00     0.025 C 
ATOM     11  S   UNL     1     -14.688  11.520 -12.818  1.00  0.00    -0.478 S 
ATOM     12  C   UNL     1     -15.196  13.265 -12.809  1.00  0.00    -0.003 C 
ATOM     13  O   UNL     1     -14.094  11.058 -14.133  1.00  0.00    -0.787 OA
ATOM     14  O   UNL     1     -15.747  10.606 -12.254  1.00  0.00    -0.787 OA
ENDBRANCH   1   9
TORSDOF 2
