REMARK SMILES [O-][C](N1CCOCC1)N1CCS1([O-])[O-]
REMARK SMILES IDX 2 1 1 2 3 3 4 4 5 5 6 6 8 7 7 8 9 9 10 10 12 11 11 12 13 13
REMARK SMILES IDX 14 14
REMARK H PARENT
REMARK INDEX MAP 7 1 8 2 6 3 1 4 2 5 3 6 5 7 4 8 9 9 10 10 12 11 11 12 13 13
REMARK INDEX MAP 14 14
REMARK Flexibility Score: inf
ROOT
ATOM      1  C   UNL     1       0.599  -2.443   0.575  1.00  0.00     0.029 C 
ATOM      2  O   UNL     1       0.075  -1.760   1.484  1.00  0.00    -0.824 OA
ENDROOT
BRANCH   1   3
ATOM      3  N   UNL     1       1.178  -3.822   0.817  1.00  0.00    -0.292 NA
ATOM      4  C   UNL     1       2.063  -3.900   2.015  1.00  0.00     0.022 C 
ATOM      5  C   UNL     1       2.450  -5.353   2.429  1.00  0.00     0.059 C 
ATOM      6  O   UNL     1       2.097  -6.345   1.404  1.00  0.00    -0.379 OA
ATOM      7  C   UNL     1       0.097  -4.836   0.941  1.00  0.00     0.022 C 
ATOM      8  C   UNL     1       0.689  -6.268   0.944  1.00  0.00     0.059 C 
ENDBRANCH   1   3
BRANCH   1   9
ATOM      9  N   UNL     1       0.691  -1.966  -0.840  1.00  0.00    -0.263 NA
ATOM     10  C   UNL     1       0.230  -0.534  -0.952  1.00  0.00     0.025 C 
ATOM     11  S   UNL     1      -0.445  -2.532  -1.928  1.00  0.00    -0.478 S 
ATOM     12  C   UNL     1      -0.953  -0.787  -1.919  1.00  0.00    -0.003 C 
ATOM     13  O   UNL     1       0.149  -2.994  -3.243  1.00  0.00    -0.787 OA
ATOM     14  O   UNL     1      -1.504  -3.446  -1.364  1.00  0.00    -0.787 OA
ENDBRANCH   1   9
TORSDOF 2
