WARNING: damped steplength 1.11772e-06 to 9.6758e-07
WARNING: damped steplength 0.0161973 to 0.00840273
REMARK  Name = BAL4850C
REMARK                            x       y       z     vdW  Elec       q    Type
REMARK                         _______ _______ _______ _____ _____    ______ ____
ROOT
ATOM      1  C   UNK A  3       -5.411  -5.651  -4.095  0.00  0.00    +0.165 C 
ATOM      2  C   UNK A  3       -6.849  -5.723  -3.483  0.00  0.00    +0.234 C 
ATOM      3  N   ALA A  4       -7.264  -6.969  -3.060  0.00  0.00    -0.303 N 
ATOM      4  H   ALA A  4       -6.592  -7.727  -2.982  0.00  0.00    +0.149 HD
ATOM      5  CA  ALA A  4       -8.544  -7.145  -2.371  0.00  0.00    +0.156 C 
ATOM      6  CB  ALA A  4       -8.436  -6.767  -0.902  0.00  0.00    +0.038 C 
ATOM      7  C   ALA A  4       -8.983  -8.612  -2.547  0.00  0.00    +0.234 C 
ATOM      8  N   UNK A  5       -9.813  -8.806  -3.631  0.00  0.00    -0.301 N 
ATOM      9  H   UNK A  5      -10.061  -8.000  -4.181  0.00  0.00    +0.150 HD
ATOM     10  C   UNK A  5      -10.234 -10.122  -4.108  0.00  0.00    +0.186 C 
ATOM     11  C   UNK A  5       -9.101 -10.981  -4.694  0.00  0.00    +0.069 C 
ATOM     12  C   UNK A  5       -8.367 -10.492  -5.930  0.00  0.00    -0.045 A 
ATOM     13  C   UNK A  5       -7.928 -11.425  -6.873  0.00  0.00    +0.007 A 
ATOM     14  C   UNK A  5       -7.197 -11.017  -7.991  0.00  0.00    +0.046 A 
ATOM     15  C   UNK A  5       -6.887  -9.669  -8.170  0.00  0.00    +0.120 A 
ATOM     16  C   UNK A  5       -7.311  -8.703  -7.254  0.00  0.00    +0.000 A 
ATOM     17  C   UNK A  5       -6.805  -7.261  -7.305  0.00  0.00    +0.059 C 
ATOM     18  C   UNK A  5       -7.865  -6.136  -7.401  0.00  0.00    +0.195 C 
ATOM     19  C   UNK A  5       -6.995  -4.889  -7.530  0.00  0.00    +0.163 C 
ATOM     20  O   UNK A  5       -6.940  -4.222  -8.559  0.00  0.00    -0.295 OA
ATOM     21  C   UNK A  5       -6.214  -4.505  -6.295  0.00  0.00    +0.083 C 
ATOM     22  C   UNK A  5       -5.812  -7.091  -6.139  0.00  0.00    +0.017 C 
ATOM     23  C   UNK A  5       -8.046  -9.141  -6.141  0.00  0.00    +0.011 A 
ATOM     24  O   ALA A  4       -8.509  -9.536  -1.899  0.00  0.00    -0.274 OA
ATOM     25  O   UNK A  3       -7.595  -4.749  -3.411  0.00  0.00    -0.274 OA
ATOM     26  C   UNK A  5       -5.440  -5.672  -5.665  0.00  0.00    +0.026 C 
ENDROOT
BRANCH   1  28
ATOM     27  C   GLY A  2       -3.216  -4.841  -3.346  0.00  0.00    +0.233 C 
ATOM     28  N   UNK A  3       -4.562  -4.564  -3.546  0.00  0.00    -0.291 N 
ATOM     29  C   UNK A  3       -5.200  -3.315  -3.148  0.00  0.00    +0.133 C 
ATOM     30  O   GLY A  2       -2.696  -5.865  -3.804  0.00  0.00    -0.274 OA
BRANCH  27  31
ATOM     31  CA  GLY A  2       -2.328  -3.810  -2.651  0.00  0.00    +0.200 C 
BRANCH  31  33
ATOM     32  C   ALA A  1       -0.466  -2.366  -3.314  0.00  0.00    +0.233 C 
ATOM     33  N   GLY A  2       -1.410  -3.300  -3.641  0.00  0.00    -0.305 N 
ATOM     34  H   GLY A  2       -1.349  -3.812  -4.506  0.00  0.00    +0.149 HD
ATOM     35  O   ALA A  1       -0.432  -1.872  -2.181  0.00  0.00    -0.274 OA
BRANCH  32  36
ATOM     36  CA  ALA A  1        0.618  -2.130  -4.393  0.00  0.00    +0.156 C 
ATOM     37  CB  ALA A  1        1.616  -1.090  -3.863  0.00  0.00    +0.038 C 
BRANCH  36  39
ATOM     38  C   UNK A  0       -0.362  -2.334  -6.823  0.00  0.00    +0.236 C 
ATOM     39  N   ALA A  1        0.085  -1.699  -5.699  0.00  0.00    -0.303 N 
ATOM     40  H   ALA A  1       -0.032  -0.694  -5.805  0.00  0.00    +0.149 HD
ATOM     41  O   UNK A  0       -0.759  -1.590  -7.728  0.00  0.00    -0.274 OA
BRANCH  38  42
ATOM     42  C   UNK A  0       -0.376  -3.872  -6.982  0.00  0.00    +0.187 C 
BRANCH  42  43
ATOM     43  N   UNK A  0        0.813  -4.468  -7.652  0.00  0.00    -0.291 N 
ATOM     44  C   UNK A  0        0.892  -4.566  -9.038  0.00  0.00    +0.213 C 
ATOM     45  C   UNK A  0        2.188  -5.068  -9.630  0.00  0.00    +0.109 C 
ATOM     46  O   UNK A  0       -0.025  -4.273  -9.803  0.00  0.00    -0.276 OA
ATOM     47  C   UNK A  0        1.901  -4.891  -6.780  0.00  0.00    +0.133 C 
ENDBRANCH  42  43
BRANCH  42  48
ATOM     48  C   UNK A  0       -1.751  -4.270  -7.582  0.00  0.00    +0.187 C 
BRANCH  48  49
ATOM     49  O   UNK A  0       -1.990  -5.664  -7.374  0.00  0.00    -0.393 OA
ATOM     50  H   UNK A  0       -2.878  -5.847  -7.735  0.00  0.00    +0.209 HD
ENDBRANCH  48  49
ENDBRANCH  42  48
ENDBRANCH  38  42
ENDBRANCH  36  39
ENDBRANCH  32  36
ENDBRANCH  31  33
ENDBRANCH  27  31
ENDBRANCH   1  28
BRANCH  10  51
ATOM     51  C   UNK A  5      -11.464  -9.978  -5.016  0.00  0.00    +0.326 C 
ATOM     52  O   UNK A  5      -12.596 -10.052  -4.594  0.00  0.00    -0.249 OA
BRANCH  51  53
ATOM     53  O   UNK A  5      -11.231  -9.592  -6.308  0.00  0.00    -0.479 OA
ATOM     54  H   UNK A  5      -10.334  -9.562  -6.599  0.00  0.00    +0.295 HD
ENDBRANCH  51  53
ENDBRANCH  10  51
BRANCH  15  55
ATOM     55  O   UNK A  5       -6.108  -9.287  -9.222  0.00  0.00    -0.506 OA
ATOM     56  H   UNK A  5       -5.836 -10.074  -9.723  0.00  0.00    +0.292 HD
ENDBRANCH  15  55
BRANCH  18  57
ATOM     57  O   UNK A  5       -8.780  -6.054  -6.291  0.00  0.00    -0.337 OA
BRANCH  57  58
ATOM     58  C   UNK A  5       -9.719  -4.956  -6.447  0.00  0.00    +0.282 C 
ATOM     59  O   UNK A  5      -10.435  -5.047  -7.672  0.00  0.00    -0.343 OA
ATOM     60  C   UNK A  5      -11.355  -6.143  -7.741  0.00  0.00    +0.149 C 
ATOM     61  C   UNK A  5      -11.944  -6.133  -9.145  0.00  0.00    +0.041 C 
ATOM     62  C   UNK A  5      -12.435  -6.046  -6.653  0.00  0.00    +0.174 C 
ATOM     63  C   UNK A  5      -11.766  -5.912  -5.281  0.00  0.00    +0.179 C 
ATOM     64  C   UNK A  5      -10.673  -4.839  -5.232  0.00  0.00    +0.201 C 
BRANCH  64  65
ATOM     65  O   UNK A  5      -11.338  -3.561  -5.140  0.00  0.00    -0.384 OA
ATOM     66  H   UNK A  5      -10.663  -2.862  -5.196  0.00  0.00    +0.210 HD
ENDBRANCH  64  65
BRANCH  63  67
ATOM     67  O   UNK A  5      -12.751  -5.636  -4.275  0.00  0.00    -0.386 OA
ATOM     68  H   UNK A  5      -12.786  -4.656  -4.226  0.00  0.00    +0.210 HD
ENDBRANCH  63  67
BRANCH  62  69
ATOM     69  O   UNK A  5      -13.312  -4.942  -6.892  0.00  0.00    -0.387 OA
ATOM     70  H   UNK A  5      -13.890  -4.889  -6.109  0.00  0.00    +0.210 HD
ENDBRANCH  62  69
ENDBRANCH  57  58
ENDBRANCH  18  57
TORSDOF 17
