WARNING: damped steplength 0.00759438 to 0.00666589
REMARK  Name = /tmp/RJWTFN0
REMARK                            x       y       z     vdW  Elec       q    Type
REMARK                         _______ _______ _______ _____ _____    ______ ____
ROOT
ATOM      1  C   UNK A  3        2.649  -2.103  -0.287  0.00  0.00    +0.165 C 
ATOM      2  C   UNK A  3        4.159  -1.694  -0.635  0.00  0.00    +0.234 C 
ATOM      3  N   ALA A  4        4.256  -0.787  -1.701  0.00  0.00    -0.304 N 
ATOM      4  H   ALA A  4        3.572  -0.080  -1.727  0.00  0.00    +0.273 HD
ATOM      5  H   UNK A  5        4.512   1.487  -5.150  0.00  0.00    +0.121 HD
ATOM      6  N   UNK A  5        4.194   1.023  -4.342  0.00  0.00    -0.307 N 
ATOM      7  C   UNK A  5        2.705   0.973  -4.282  0.00  0.00    +0.123 C 
ATOM      8  C   UNK A  5        2.031   0.332  -5.513  0.00  0.00    +0.067 C 
ATOM      9  C   UNK A  3        0.833  -5.425  -2.822  0.00  0.00    +0.195 C 
ATOM     10  C   UNK A  3        2.212  -5.615  -2.134  0.00  0.00    +0.163 C 
ATOM     11  O   UNK A  3        2.743  -6.732  -2.093  0.00  0.00    -0.295 OA
ATOM     12  C   UNK A  3        2.936  -4.433  -1.463  0.00  0.00    +0.083 C 
ATOM     13  C   UNK A  3        0.614  -3.930  -3.168  0.00  0.00    +0.059 C 
ATOM     14  C   UNK A  5        1.300  -3.291  -4.392  0.00  0.00    +0.000 A 
ATOM     15  C   UNK A  5        1.708  -3.971  -5.548  0.00  0.00    +0.120 A 
ATOM     16  C   UNK A  5        2.199  -3.283  -6.667  0.00  0.00    -0.018 A 
ATOM     17  C   UNK A  5        2.325  -1.897  -6.645  0.00  0.00    -0.055 A 
ATOM     18  C   UNK A  5        1.381  -1.880  -4.441  0.00  0.00    -0.052 A 
ATOM     19  C   UNK A  3        0.782  -3.164  -1.816  0.00  0.00    +0.017 C 
ATOM     20  C   UNK A  5        1.951  -1.180  -5.513  0.00  0.00    -0.045 A 
ATOM     21  C   ALA A  4        5.229   0.589  -3.563  0.00  0.00    +0.234 C 
ATOM     22  O   ALA A  4        6.254   1.265  -3.629  0.00  0.00    -0.274 OA
ATOM     23  CB  ALA A  4        6.640  -1.079  -2.283  0.00  0.00    -0.036 C 
ATOM     24  CA  ALA A  4        5.226  -0.760  -2.759  0.00  0.00    +0.097 C 
ATOM     25  O   UNK A  3        5.107  -2.353  -0.202  0.00  0.00    -0.274 OA
ATOM     26  C   UNK A  3        2.263  -3.037  -1.501  0.00  0.00    +0.026 C 
ENDROOT
BRANCH   1  28
ATOM     27  C   GLY A  2        0.668  -1.152   0.967  0.00  0.00    +0.233 C 
ATOM     28  N   UNK A  3        1.665  -0.974   0.011  0.00  0.00    -0.291 N 
ATOM     29  C   UNK A  3        1.795   0.295  -0.655  0.00  0.00    +0.133 C 
ATOM     30  O   GLY A  2        0.476  -2.236   1.521  0.00  0.00    -0.274 OA
BRANCH  27  31
ATOM     31  CA  GLY A  2       -0.217   0.094   1.269  0.00  0.00    +0.200 C 
BRANCH  31  33
ATOM     32  C   ALA A  1       -1.634   0.904   3.125  0.00  0.00    +0.233 C 
ATOM     33  N   GLY A  2       -1.330  -0.070   2.177  0.00  0.00    -0.305 N 
ATOM     34  H   GLY A  2       -1.882  -0.883   2.124  0.00  0.00    +0.149 HD
ATOM     35  O   ALA A  1       -0.835   1.776   3.477  0.00  0.00    -0.274 OA
BRANCH  32  36
ATOM     36  CA  ALA A  1       -3.064   0.833   3.764  0.00  0.00    +0.156 C 
ATOM     37  CB  ALA A  1       -3.006   0.474   5.249  0.00  0.00    +0.038 C 
BRANCH  36  39
ATOM     38  C   UNK A  0       -4.201  -1.122   2.627  0.00  0.00    +0.236 C 
ATOM     39  N   ALA A  1       -4.165   0.191   3.050  0.00  0.00    -0.303 N 
ATOM     40  H   ALA A  1       -4.953   0.746   2.853  0.00  0.00    +0.149 HD
ATOM     41  O   UNK A  0       -3.198  -1.869   2.729  0.00  0.00    -0.274 OA
BRANCH  38  42
ATOM     42  C   UNK A  0       -5.425  -1.526   1.775  0.00  0.00    +0.187 C 
BRANCH  42  43
ATOM     43  N   UNK A  0       -6.006  -2.818   2.226  0.00  0.00    -0.291 N 
ATOM     44  C   UNK A  0       -6.778  -3.050   3.365  0.00  0.00    +0.213 C 
ATOM     45  C   UNK A  0       -7.150  -1.917   4.264  0.00  0.00    +0.109 C 
ATOM     46  O   UNK A  0       -7.197  -4.169   3.643  0.00  0.00    -0.276 OA
ATOM     47  C   UNK A  0       -5.527  -4.003   1.508  0.00  0.00    +0.133 C 
ENDBRANCH  42  43
BRANCH  42  48
ATOM     48  C   UNK A  0       -6.388  -0.397   1.325  0.00  0.00    +0.187 C 
BRANCH  48  49
ATOM     49  O   UNK A  0       -7.214   0.154   2.340  0.00  0.00    -0.393 OA
ATOM     50  H   UNK A  0       -7.810  -0.533   2.680  0.00  0.00    +0.209 HD
ENDBRANCH  48  49
ENDBRANCH  42  48
ENDBRANCH  38  42
ENDBRANCH  36  39
ENDBRANCH  32  36
ENDBRANCH  31  33
ENDBRANCH  27  31
ENDBRANCH   1  28
BRANCH   7  51
ATOM     51  C   UNK A  5        2.104   2.429  -4.200  0.00  0.00    +0.062 C 
ATOM     52  O   UNK A  5        1.927   3.012  -5.325  0.00  0.00    -0.548 OA
ATOM     53  O   UNK A  5        1.920   2.851  -3.035  0.00  0.00    -0.548 OA
ENDBRANCH   7  51
BRANCH  15  54
ATOM     54  O   UNK A  5        1.590  -5.326  -5.634  0.00  0.00    -0.509 OA
ATOM     55  H   UNK A  5        1.265  -5.815  -4.904  0.00  0.00    +0.236 HD
ENDBRANCH  15  54
BRANCH   9  56
ATOM     56  O   UNK A  3       -0.241  -5.950  -1.984  0.00  0.00    -0.337 OA
BRANCH  56  60
ATOM     57  C   UNK A  3       -2.463  -8.383  -5.195  0.00  0.00    +0.016 C 
ATOM     58  C   UNK A  3       -2.588  -7.641  -3.871  0.00  0.00    +0.149 C 
ATOM     59  O   UNK A  3       -1.598  -6.607  -3.822  0.00  0.00    -0.343 OA
ATOM     60  C   UNK A  3       -1.551  -5.875  -2.582  0.00  0.00    +0.282 C 
ATOM     61  C   UNK A  3       -2.706  -6.259  -1.616  0.00  0.00    +0.201 C 
ATOM     62  C   UNK A  3       -2.741  -7.766  -1.352  0.00  0.00    +0.179 C 
ATOM     63  C   UNK A  3       -2.461  -8.566  -2.642  0.00  0.00    +0.174 C 
BRANCH  61  64
ATOM     64  O   UNK A  3       -2.772  -5.490  -0.415  0.00  0.00    -0.384 OA
ATOM     65  H   UNK A  3       -1.987  -5.669   0.127  0.00  0.00    +0.210 HD
ENDBRANCH  61  64
BRANCH  62  66
ATOM     66  O   UNK A  3       -1.836  -8.112  -0.299  0.00  0.00    -0.386 OA
ATOM     67  H   UNK A  3       -0.931  -7.883  -0.562  0.00  0.00    +0.210 HD
ENDBRANCH  62  66
BRANCH  63  68
ATOM     68  O   UNK A  3       -1.162  -9.164  -2.527  0.00  0.00    -0.387 OA
ATOM     69  H   UNK A  3       -0.496  -8.469  -2.405  0.00  0.00    +0.210 HD
ENDBRANCH  63  68
ENDBRANCH  56  60
ENDBRANCH   9  56
TORSDOF 16