REMARK SMILES O=C1C=CC[C@]2(O)[C]([O-])OC[C@@]12CCC1=CC=C(c2ccoc2)O[C]1[O-]
REMARK SMILES IDX 14 1 13 2 12 3 10 4 11 5 8 6 9 7 6 8 2 9 7 10 5 11 1 12 3 13
REMARK SMILES IDX 4 14 15 15 16 16 25 17 17 18 24 19 26 20 18 21 19 22 20 23
REMARK SMILES IDX 23 24 21 25 22 26
REMARK H PARENT
REMARK Flexibility Score: inf
ROOT
ATOM      1  C   UNL     1      -0.540   0.547  -1.137  1.00  0.00    -0.028 C 
ENDROOT
BRANCH   1   2
ATOM      2  C   UNL     1      -1.410   0.028  -0.005  1.00  0.00    -0.031 C 
BRANCH   2   3
ATOM      3  C   UNL     1      -2.906   0.104  -0.392  1.00  0.00     0.087 C 
ATOM      4  O   UNL     1      -3.401  -2.143  -0.782  1.00  0.00    -0.386 OA
ATOM      5  C   UNL     1      -3.169  -0.903  -1.497  1.00  0.00     0.062 C 
ATOM      6  C   UNL     1      -3.717  -1.884   0.537  1.00  0.00     0.042 C 
ATOM      7  O   UNL     1      -3.888  -2.730   1.398  1.00  0.00    -0.825 OA
ATOM      8  C   UNL     1      -3.869  -0.400   0.686  1.00  0.00     0.099 C 
ATOM      9  C   UNL     1      -3.257   1.562  -0.632  1.00  0.00     0.166 C 
ATOM     10  O   UNL     1      -5.257  -0.210   0.358  1.00  0.00    -0.387 OA
ATOM     11  C   UNL     1      -3.635   0.289   2.018  1.00  0.00    -0.003 C 
ATOM     12  O   UNL     1      -3.296   2.073  -1.747  1.00  0.00    -0.294 OA
ATOM     13  C   UNL     1      -3.484   2.389   0.599  1.00  0.00    -0.022 C 
ATOM     14  C   UNL     1      -3.609   1.791   1.797  1.00  0.00    -0.078 C 
ENDBRANCH   2   3
ENDBRANCH   1   2
BRANCH   1  15
ATOM     15  C   UNL     1       0.909   0.487  -0.768  1.00  0.00    -0.040 C 
ATOM     16  C   UNL     1       1.617   1.566  -0.410  1.00  0.00    -0.057 C 
ATOM     17  C   UNL     1       1.576  -0.842  -0.808  1.00  0.00     0.091 C 
ATOM     18  C   UNL     1       3.005   1.475  -0.062  1.00  0.00    -0.019 C 
ATOM     19  O   UNL     1       2.902  -0.886  -0.470  1.00  0.00    -0.496 OA
ATOM     20  O   UNL     1       0.964  -1.856  -1.128  1.00  0.00    -0.813 OA
ATOM     21  C   UNL     1       3.614   0.283  -0.101  1.00  0.00     0.129 C 
BRANCH  21  22
ATOM     22  C   UNL     1       5.032   0.064   0.241  1.00  0.00     0.055 A 
ATOM     23  C   UNL     1       5.990   1.017   0.659  1.00  0.00    -0.013 A 
ATOM     24  C   UNL     1       5.685  -1.146   0.210  1.00  0.00     0.101 A 
ATOM     25  C   UNL     1       7.161   0.322   0.854  1.00  0.00     0.091 A 
ATOM     26  O   UNL     1       6.984  -0.998   0.582  1.00  0.00    -0.472 OA
ENDBRANCH  21  22
ENDBRANCH   1  15
TORSDOF 4
