REMARK  Name = 446853
REMARK                            x       y       z     vdW  Elec       q    Type
REMARK                         _______ _______ _______ _____ _____    ______ ____
ROOT
ATOM      1  S   LIG    1        5.672   2.765  -1.100  0.00  0.00    +0.073 S 
ATOM      2  O   LIG    1        6.251   1.988  -2.183  0.00  0.00    -0.150 OA
ATOM      3  O   LIG    1        5.576   2.248   0.246  0.00  0.00    -0.150 OA
ENDROOT
BRANCH   1   4
ATOM      4  C   LIG    1        6.770   4.123  -0.962  0.00  0.00    +0.124 A 
ATOM      5  C   LIG    1        7.378   4.482   0.288  0.00  0.00    +0.037 A 
ATOM      6  C   LIG    1        8.273   5.519   0.160  0.00  0.00    +0.048 A 
ATOM      7  S   LIG    1        8.360   6.088  -1.442  0.00  0.00    -0.093 S 
ATOM      8  C   LIG    1        7.201   4.936  -1.996  0.00  0.00    +0.061 A 
BRANCH   8   9
ATOM      9  C   LIG    1        6.788   4.967  -3.386  0.00  0.00    +0.080 C 
ATOM     10  O   LIG    1        5.695   4.614  -3.794  0.00  0.00    -0.544 OA
ATOM     11  O   LIG    1        7.746   5.476  -4.215  0.00  0.00    -0.544 OA
ENDBRANCH   8   9
ENDBRANCH   1   4
BRANCH   1  12
ATOM     12  N   LIG    1        4.151   3.342  -1.598  0.00  0.00    -0.216 N 
ATOM     13  H   LIG    1        3.993   4.282  -1.843  0.00  0.00    +0.174 HD
BRANCH  12  18
ATOM     14 CL   LIG    1       -0.043  -0.897  -1.696  0.00  0.00    -0.084 Cl
ATOM     15  C   LIG    1        1.149   0.345  -1.675  0.00  0.00    +0.041 A 
ATOM     16  C   LIG    1        1.332   1.116  -0.528  0.00  0.00    +0.022 A 
ATOM     17  C   LIG    1        2.321   2.110  -0.504  0.00  0.00    +0.026 A 
ATOM     18  C   LIG    1        3.113   2.342  -1.633  0.00  0.00    +0.048 A 
ATOM     19  C   LIG    1        2.923   1.566  -2.780  0.00  0.00    +0.026 A 
ATOM     20  C   LIG    1        1.936   0.571  -2.803  0.00  0.00    +0.022 A 
ENDBRANCH  12  18
ENDBRANCH   1  12
TORSDOF 4
