REMARK  Name = 44150203
REMARK                            x       y       z     vdW  Elec       q    Type
REMARK                         _______ _______ _______ _____ _____    ______ ____
ROOT
ATOM      1  S   LIG    1       -0.975  -2.565   0.255  0.00  0.00    -0.093 S 
ATOM      2  C   LIG    1        0.537  -1.827  -0.244  0.00  0.00    +0.071 C 
ATOM      3  C   LIG    1        0.478  -0.484  -0.228  0.00  0.00    +0.142 C 
ATOM     10  N   LIG    1       -0.706   0.049   0.219  0.00  0.00    -0.250 N 
ATOM     11  C   LIG    1       -1.625   0.689  -0.563  0.00  0.00    +0.229 C 
ATOM     12  C   LIG    1       -2.724  -0.310  -0.127  0.00  0.00    +0.135 C 
ATOM     17  O   LIG    1       -1.539   1.591  -1.366  0.00  0.00    -0.275 OA
ATOM     21  C   LIG    1       -1.645  -0.941   0.770  0.00  0.00    +0.159 C 
ENDROOT
BRANCH   3   4
ATOM      4  C   LIG    1        1.524   0.430  -0.688  0.00  0.00    +0.356 C 
ATOM      5  O   LIG    1        2.313   0.162  -1.581  0.00  0.00    -0.243 OA
BRANCH   4   6
ATOM      6  O   LIG    1        1.451   1.576   0.037  0.00  0.00    -0.456 OA
BRANCH   6   7
ATOM      7  C   LIG    1        2.417   2.577  -0.298  0.00  0.00    +0.259 C 
BRANCH   7   8
ATOM      8  C   LIG    1        2.203   3.764   0.582  0.00  0.00    +0.006 C 
ATOM      9  C   LIG    1        3.126   4.250   1.419  0.00  0.00    +0.007 C 
ENDBRANCH   7   8
ENDBRANCH   6   7
ENDBRANCH   4   6
ENDBRANCH   3   4
BRANCH  12  13
ATOM     13  C   LIG    1       -3.948   0.335   0.484  0.00  0.00    +0.126 C 
ATOM     14  C   LIG    1       -4.896   0.845  -0.596  0.00  0.00    +0.038 C 
BRANCH  13  15
ATOM     15  O   LIG    1       -4.643  -0.614   1.291  0.00  0.00    -0.391 OA
ATOM     16  H   LIG    1       -5.413  -0.162   1.678  0.00  0.00    +0.210 HD
ENDBRANCH  13  15
ENDBRANCH  12  13
BRANCH   2  18
ATOM     18  S   LIG    1        1.868  -2.788  -0.765  0.00  0.00    -0.117 S 
BRANCH  18  19
ATOM     19  C   LIG    1        2.765  -2.954   0.795  0.00  0.00    +0.071 C 
ATOM     20  C   LIG    1        4.019  -3.785   0.602  0.00  0.00    +0.015 C 
ENDBRANCH  18  19
ENDBRANCH   2  18
TORSDOF 8
