REMARK SMILES O=C1C[C@H]2O/C(=C\CO)[C@H]([C]([O-])O)N12
REMARK SMILES IDX 5 1 1 2 14 3 4 4 10 5 3 6 2 7 6 8 7 9 11 10 13 11 12 12 8 13
REMARK SMILES IDX 9 14
REMARK H PARENT
REMARK INDEX MAP 1 1 2 2 6 3 7 4 8 5 9 6 10 7 11 8 13 9 12 10 3 11 4 12 14 13
REMARK INDEX MAP 5 14
REMARK Flexibility Score: inf
ROOT
ATOM      1  O   UNL     1      -0.598   1.057   0.989  1.00  0.00    -0.472 OA
ATOM      2  O   UNL     1       2.728   1.149  -1.525  1.00  0.00    -0.275 OA
ATOM      3  N   UNL     1       1.423   0.137   0.161  1.00  0.00    -0.295 N 
ATOM      4  C   UNL     1       0.839   1.023   1.171  1.00  0.00     0.183 C 
ATOM      5  C   UNL     1       0.397  -0.665  -0.452  1.00  0.00     0.108 C 
ATOM      6  C   UNL     1       1.701   2.154   0.584  1.00  0.00     0.083 C 
ATOM      7  C   UNL     1       2.124   1.121  -0.477  1.00  0.00     0.231 C 
ATOM      8  C   UNL     1      -0.845   0.027   0.061  1.00  0.00     0.121 C 
ATOM      9  C   UNL     1      -2.091  -0.241  -0.344  1.00  0.00    -0.019 C 
ENDROOT
BRANCH   5  10
ATOM     10  C   UNL     1       0.495  -2.041   0.119  1.00  0.00     0.035 C 
ATOM     11  O   UNL     1       0.661  -2.957  -0.866  1.00  0.00    -0.403 OA
ATOM     12  O   UNL     1       0.436  -2.313   1.309  1.00  0.00    -0.826 OA
ENDBRANCH   5  10
BRANCH   9  13
ATOM     13  C   UNL     1      -3.305   0.455   0.176  1.00  0.00     0.065 C 
ATOM     14  O   UNL     1      -3.965   1.094  -0.907  1.00  0.00    -0.392 OA
ENDBRANCH   9  13
TORSDOF 2
