REMARK SMILES C=CCO[C]([O-])C1=CS[C@H]2[C@@H]([C@@H](C)O[C](C)[O-])C(=O)N12
REMARK SMILES IDX 9 1 19 2 20 3 11 4 10 5 18 6 7 7 8 8 12 9 13 10 14 11 15 12
REMARK SMILES IDX 17 13 16 14 5 15 6 16 4 17 3 18 2 19 1 20
REMARK H PARENT
REMARK Flexibility Score: inf
ROOT
ATOM      1  S   UNL     1      -1.325  -2.239  -0.374  1.00  0.00    -0.106 SA
ATOM      2  O   UNL     1       0.887   1.686  -0.105  1.00  0.00    -0.274 OA
ATOM      3  N   UNL     1       0.584  -0.504  -0.936  1.00  0.00    -0.300 N 
ATOM      4  C   UNL     1      -1.200   0.559  -1.066  1.00  0.00     0.095 C 
ATOM      5  C   UNL     1      -0.752  -0.862  -1.450  1.00  0.00     0.101 C 
ATOM      6  C   UNL     1       0.267   0.788  -0.627  1.00  0.00     0.236 C 
ATOM      7  C   UNL     1       1.093  -1.419  -0.055  1.00  0.00     0.046 C 
ATOM      8  C   UNL     1       0.265  -2.402   0.319  1.00  0.00    -0.006 C 
ENDROOT
BRANCH   4   9
ATOM      9  C   UNL     1      -2.205   0.629   0.059  1.00  0.00     0.068 C 
ATOM     10  C   UNL     1      -2.206   2.006   0.714  1.00  0.00    -0.038 C 
BRANCH   9  11
ATOM     11  O   UNL     1      -3.510   0.355  -0.452  1.00  0.00    -0.387 OA
BRANCH  11  12
ATOM     12  C   UNL     1      -4.520   0.384   0.465  1.00  0.00     0.005 C 
ATOM     13  O   UNL     1      -4.407   0.620   1.661  1.00  0.00    -0.828 OA
ATOM     14  C   UNL     1      -5.823   0.082  -0.210  1.00  0.00    -0.050 C 
ENDBRANCH  11  12
ENDBRANCH   9  11
ENDBRANCH   4   9
BRANCH   7  15
ATOM     15  C   UNL     1       2.432  -1.272   0.498  1.00  0.00     0.057 C 
ATOM     16  O   UNL     1       2.911  -2.022   1.340  1.00  0.00    -0.822 OA
BRANCH  15  17
ATOM     17  O   UNL     1       3.030  -0.191  -0.071  1.00  0.00    -0.380 OA
BRANCH  17  18
ATOM     18  C   UNL     1       4.362   0.087   0.372  1.00  0.00     0.064 C 
BRANCH  18  19
ATOM     19  C   UNL     1       4.865   1.295  -0.346  1.00  0.00    -0.066 C 
ATOM     20  C   UNL     1       5.252   2.420   0.265  1.00  0.00    -0.101 C 
ENDBRANCH  18  19
ENDBRANCH  17  18
ENDBRANCH  15  17
ENDBRANCH   7  15
TORSDOF 7
