REMARK SMILES CC(C)(C)c1cc(NC(=O)Nc2cccc(Cl)c2Cl)n(-c2ccc3c(c2)C[C@@H](C(=O)O)NC3)n1
REMARK SMILES IDX 32 2 27 3 25 4 28 5 24 6 33 7 21 8 26 9 23 10 22 11 29 12
REMARK SMILES IDX 30 13 31 14 20 16 34 17 7 18 5 19 6 20 8 21 9 23 10 24 11 25
REMARK SMILES IDX 12 27 18 28 13 29 19 30 16 31 14 32 17 33 15 34 2 35 1 36
REMARK SMILES IDX 3 37 4 38
REMARK H PARENT 32 1 31 15 8 22 11 26
REMARK Flexibility Score: inf
ROOT
ATOM      1  H   UNL     1      24.983  22.992   6.573  1.00  0.00     0.123 HD
ATOM      2  N   UNL     1      24.611  23.256   7.474  1.00  0.00    -0.300 NA
ATOM      3  C   UNL     1      24.651  24.971   9.239  1.00  0.00    -0.001 C 
ATOM      4  C   UNL     1      23.190  24.691   9.487  1.00  0.00    -0.039 A 
ATOM      5  C   UNL     1      25.088  24.595   7.820  1.00  0.00     0.110 C 
ATOM      6  C   UNL     1      22.480  23.824   8.637  1.00  0.00    -0.031 A 
ATOM      7  C   UNL     1      23.144  23.234   7.417  1.00  0.00     0.022 C 
ATOM      8  C   UNL     1      21.205  24.971  10.851  1.00  0.00     0.067 A 
ATOM      9  C   UNL     1      22.547  25.250  10.599  1.00  0.00    -0.033 A 
ATOM     10  C   UNL     1      21.129  23.558   8.894  1.00  0.00    -0.055 A 
ATOM     11  C   UNL     1      20.496  24.128   9.999  1.00  0.00    -0.036 A 
ENDROOT
BRANCH   5  12
ATOM     12  C   UNL     1      26.581  24.551   7.739  1.00  0.00     0.321 C 
ATOM     13  O   UNL     1      27.240  23.560   7.460  1.00  0.00    -0.251 OA
BRANCH  12  14
ATOM     14  O   UNL     1      27.112  25.766   8.021  1.00  0.00    -0.480 OA
ATOM     15  H   UNL     1      27.725  25.685   8.755  1.00  0.00     0.296 HD
ENDBRANCH  12  14
ENDBRANCH   5  12
BRANCH   8  16
ATOM     16  N   UNL     1      20.577  25.531  11.949  1.00  0.00    -0.217 N 
ATOM     17  N   UNL     1      20.972  26.735  12.414  1.00  0.00    -0.170 NA
ATOM     18  C   UNL     1      19.543  24.992  12.672  1.00  0.00     0.138 A 
ATOM     19  C   UNL     1      20.163  26.951  13.454  1.00  0.00     0.070 A 
ATOM     20  C   UNL     1      19.251  25.899  13.662  1.00  0.00     0.005 A 
BRANCH  18  21
ATOM     21  N   UNL     1      18.974  23.778  12.387  1.00  0.00    -0.292 N 
ATOM     22  H   UNL     1      19.358  23.278  11.598  1.00  0.00     0.173 HD
ATOM     23  C   UNL     1      17.907  23.144  13.076  1.00  0.00     0.324 C 
ATOM     24  O   UNL     1      17.325  23.607  14.051  1.00  0.00    -0.248 OA
ATOM     25  N   UNL     1      17.615  21.907  12.474  1.00  0.00    -0.306 N 
ATOM     26  H   UNL     1      18.182  21.660  11.675  1.00  0.00     0.171 HD
BRANCH  25  27
ATOM     27  C   UNL     1      16.627  20.967  12.849  1.00  0.00     0.063 A 
ATOM     28  C   UNL     1      16.027  20.142  11.910  1.00  0.00     0.083 A 
ATOM     29  C   UNL     1      16.280  20.898  14.190  1.00  0.00    -0.037 A 
ATOM     30  Cl  UNL     1      16.489  20.251  10.239  1.00  0.00    -0.080 Cl
ATOM     31  C   UNL     1      15.058  19.227  12.320  1.00  0.00     0.061 A 
ATOM     32  C   UNL     1      15.310  19.984  14.601  1.00  0.00    -0.059 A 
ATOM     33  Cl  UNL     1      14.259  18.160  11.217  1.00  0.00    -0.083 Cl
ATOM     34  C   UNL     1      14.699  19.148  13.666  1.00  0.00    -0.042 A 
ENDBRANCH  25  27
ENDBRANCH  18  21
BRANCH  19  35
ATOM     35  C   UNL     1      20.291  28.193  14.235  1.00  0.00     0.006 C 
ATOM     36  C   UNL     1      18.978  29.054  14.216  1.00  0.00    -0.054 C 
ATOM     37  C   UNL     1      21.415  29.189  13.761  1.00  0.00    -0.054 C 
ATOM     38  C   UNL     1      20.625  27.922  15.745  1.00  0.00    -0.054 C 
ENDBRANCH  19  35
ENDBRANCH   8  16
TORSDOF 6
