REMARK SMILES O=C(Nc1ccc(Oc2ccncc2)cc1)Nc1cccc(C(F)(F)F)c1
REMARK SMILES IDX 17 3 2 4 1 5 3 6 18 7 27 8 19 9 22 10 20 11 21 12 23 13
REMARK SMILES IDX 24 14 25 15 26 16 4 17 5 18 16 19 6 20 15 21 7 22 8 23 9 24
REMARK SMILES IDX 10 25 14 26 11 27 13 28 12 29
REMARK H PARENT 17 1 3 2
REMARK Flexibility Score: inf
ROOT
ATOM      1  H   UNL     1      46.686  26.990  44.593  1.00  0.00     0.171 HD
ATOM      2  H   UNL     1      47.020  24.910  44.651  1.00  0.00     0.171 HD
ATOM      3  N   UNL     1      47.207  27.122  43.738  1.00  0.00    -0.308 N 
ATOM      4  C   UNL     1      47.731  26.046  43.103  1.00  0.00     0.323 C 
ATOM      5  O   UNL     1      48.339  26.107  41.995  1.00  0.00    -0.248 OA
ATOM      6  N   UNL     1      47.543  24.900  43.787  1.00  0.00    -0.308 N 
ENDROOT
BRANCH   3   7
ATOM      7  C   UNL     1      47.380  28.435  43.218  1.00  0.00     0.043 A 
ATOM      8  C   UNL     1      47.565  28.697  41.848  1.00  0.00    -0.026 A 
ATOM      9  C   UNL     1      47.391  29.528  44.107  1.00  0.00    -0.038 A 
ATOM     10  C   UNL     1      47.736  30.013  41.368  1.00  0.00     0.058 A 
ATOM     11  C   UNL     1      47.541  30.844  43.637  1.00  0.00    -0.060 A 
ATOM     12  C   UNL     1      47.718  31.087  42.271  1.00  0.00    -0.050 A 
BRANCH  10  13
ATOM     13  C   UNL     1      47.965  30.239  39.894  1.00  0.00     0.416 C 
ATOM     14  F   UNL     1      47.904  31.570  39.528  1.00  0.00    -0.166 F 
ATOM     15  F   UNL     1      49.224  29.768  39.602  1.00  0.00    -0.166 F 
ATOM     16  F   UNL     1      47.053  29.538  39.139  1.00  0.00    -0.166 F 
ENDBRANCH  10  13
ENDBRANCH   3   7
BRANCH   6  17
ATOM     17  C   UNL     1      48.074  23.685  43.300  1.00  0.00     0.043 A 
ATOM     18  C   UNL     1      49.295  23.619  42.598  1.00  0.00    -0.035 A 
ATOM     19  C   UNL     1      47.394  22.485  43.554  1.00  0.00    -0.035 A 
ATOM     20  C   UNL     1      49.823  22.392  42.151  1.00  0.00    -0.017 A 
ATOM     21  C   UNL     1      47.923  21.253  43.113  1.00  0.00    -0.017 A 
ATOM     22  C   UNL     1      49.148  21.195  42.423  1.00  0.00     0.127 A 
BRANCH  22  23
ATOM     23  O   UNL     1      49.628  19.991  42.013  1.00  0.00    -0.457 OA
BRANCH  23  24
ATOM     24  C   UNL     1      49.406  19.547  40.752  1.00  0.00     0.130 A 
ATOM     25  C   UNL     1      48.303  19.987  40.007  1.00  0.00    -0.001 A 
ATOM     26  C   UNL     1      50.288  18.648  40.143  1.00  0.00    -0.001 A 
ATOM     27  C   UNL     1      48.136  19.521  38.713  1.00  0.00     0.030 A 
ATOM     28  C   UNL     1      50.028  18.237  38.841  1.00  0.00     0.030 A 
ATOM     29  N   UNL     1      48.979  18.665  38.129  1.00  0.00    -0.264 NA
ENDBRANCH  23  24
ENDBRANCH  22  23
ENDBRANCH   6  17
TORSDOF 5
