REMARK SMILES C=CCOC(=O)C1=CS[C@H]2[C@@H]([C@@H](C)OC(C)=O)C(=O)N12
REMARK SMILES IDX 9 1 8 2 7 3 20 4 10 5 11 6 18 7 19 8 5 9 6 10 4 11 3 12 2 13
REMARK SMILES IDX 1 14 12 15 13 16 14 17 15 18 17 19 16 20
REMARK H PARENT
REMARK Flexibility Score: inf
ROOT
ATOM      1  S   UNL     1      65.778  21.620  10.910  1.00  0.00    -0.105 SA
ATOM      2  C   UNL     1      64.714  21.470   9.485  1.00  0.00     0.004 C 
ATOM      3  C   UNL     1      63.615  22.238   9.557  1.00  0.00     0.137 C 
ATOM      4  N   UNL     1      63.506  22.986  10.756  1.00  0.00    -0.291 N 
ATOM      5  C   UNL     1      64.628  22.851  11.712  1.00  0.00     0.102 C 
ATOM      6  C   UNL     1      65.067  24.317  11.768  1.00  0.00     0.106 C 
ATOM      7  C   UNL     1      64.888  24.953  10.378  1.00  0.00     0.238 C 
ATOM      8  O   UNL     1      65.574  24.575   9.424  1.00  0.00    -0.274 OA
ENDROOT
BRANCH   3   9
ATOM      9  C   UNL     1      62.589  22.326   8.501  1.00  0.00     0.355 C 
ATOM     10  O   UNL     1      61.595  23.001   8.496  1.00  0.00    -0.244 OA
BRANCH   9  11
ATOM     11  O   UNL     1      62.971  21.498   7.545  1.00  0.00    -0.457 OA
BRANCH  11  12
ATOM     12  C   UNL     1      62.076  20.366   7.196  1.00  0.00     0.110 C 
BRANCH  12  13
ATOM     13  C   UNL     1      62.466  19.572   5.999  1.00  0.00    -0.054 C 
ATOM     14  C   UNL     1      63.170  18.596   5.943  1.00  0.00    -0.100 C 
ENDBRANCH  12  13
ENDBRANCH  11  12
ENDBRANCH   9  11
ENDBRANCH   3   9
BRANCH   6  15
ATOM     15  C   UNL     1      66.477  24.360  12.118  1.00  0.00     0.113 C 
ATOM     16  C   UNL     1      66.896  25.750  12.490  1.00  0.00    -0.027 C 
BRANCH  15  17
ATOM     17  O   UNL     1      66.785  23.339  13.128  1.00  0.00    -0.462 OA
BRANCH  17  18
ATOM     18  C   UNL     1      68.099  23.069  13.458  1.00  0.00     0.302 C 
ATOM     19  O   UNL     1      68.445  22.442  14.433  1.00  0.00    -0.253 OA
ATOM     20  C   UNL     1      69.086  23.571  12.475  1.00  0.00     0.034 C 
ENDBRANCH  17  18
ENDBRANCH  15  17
ENDBRANCH   6  15
TORSDOF 7
