REMARK SMILES CC1(C)S[C@@H]2[C@H](NC(=O)Cc3ccccc3)C(=O)N2[C@H]1[C]([O-])O
REMARK SMILES IDX 9 1 7 2 8 3 6 4 4 5 5 6 2 7 19 8 20 9 1 10 3 11 17 12 18 13
REMARK SMILES IDX 21 14 23 15 22 16 10 17 11 18 12 19 16 20 13 21 15 22 14 23
REMARK H PARENT
REMARK INDEX MAP 5 1 7 2 16 3 11 4 1 5 8 6 9 7 6 8 10 9 13 10 14 11 12 12 2 13
REMARK INDEX MAP 15 14 3 15 4 16 17 17 18 18 19 19 20 20 21 21 22 22 23 23
REMARK Flexibility Score: inf
ROOT
ATOM      1  O   UNL     1       2.160  -2.040   1.217  1.00  0.00    -0.275 OA
ATOM      2  N   UNL     1       0.568  -1.381  -0.338  1.00  0.00    -0.341 N 
ATOM      3  C   UNL     1       1.873  -1.611   0.102  1.00  0.00     0.225 C 
ENDROOT
BRANCH   2   4
ATOM      4  C   UNL     1      -0.614  -1.633   0.499  1.00  0.00     0.138 C 
ATOM      5  S   UNL     1      -0.802   1.231   0.517  1.00  0.00    -0.126 SA
ATOM      6  C   UNL     1      -1.310  -0.418   1.128  1.00  0.00     0.108 C 
ATOM      7  C   UNL     1      -2.567   1.668   0.113  1.00  0.00     0.034 C 
ATOM      8  N   UNL     1      -2.478  -0.737   0.302  1.00  0.00    -0.320 N 
ATOM      9  C   UNL     1      -3.167   0.336  -0.386  1.00  0.00     0.062 C 
ATOM     10  C   UNL     1      -3.219   2.222   1.387  1.00  0.00    -0.049 C 
ATOM     11  C   UNL     1      -2.577   2.731  -0.986  1.00  0.00    -0.049 C 
ATOM     12  C   UNL     1      -1.918  -1.826  -0.301  1.00  0.00     0.249 C 
ATOM     13  O   UNL     1      -2.284  -2.545  -1.203  1.00  0.00    -0.272 OA
BRANCH   9  14
ATOM     14  C   UNL     1      -4.630   0.158  -0.130  1.00  0.00     0.029 C 
ATOM     15  O   UNL     1      -5.352   1.076  -0.817  1.00  0.00    -0.403 OA
ATOM     16  O   UNL     1      -5.116  -0.697   0.596  1.00  0.00    -0.826 OA
ENDBRANCH   9  14
ENDBRANCH   2   4
BRANCH   3  17
ATOM     17  C   UNL     1       2.902  -1.265  -0.956  1.00  0.00     0.052 C 
BRANCH  17  18
ATOM     18  C   UNL     1       3.868  -0.195  -0.522  1.00  0.00    -0.039 A 
ATOM     19  C   UNL     1       3.567   1.137  -0.769  1.00  0.00    -0.059 A 
ATOM     20  C   UNL     1       5.046  -0.556   0.117  1.00  0.00    -0.059 A 
ATOM     21  C   UNL     1       4.462   2.129  -0.367  1.00  0.00    -0.062 A 
ATOM     22  C   UNL     1       5.940   0.436   0.519  1.00  0.00    -0.062 A 
ATOM     23  C   UNL     1       5.649   1.779   0.277  1.00  0.00    -0.062 A 
ENDBRANCH  17  18
ENDBRANCH   3  17
TORSDOF 4
