REMARK  Name = /tmp/59BH6PR
REMARK                            x       y       z     vdW  Elec       q    Type
REMARK                         _______ _______ _______ _____ _____    ______ ____
ROOT
ATOM      1  H   LIG    1        2.321   0.024  -1.014  0.00  0.00    +0.156 HD
ATOM      2  N   LIG    1        2.115   0.001  -0.020  0.00  0.00    -0.269 N 
ATOM      3  C   LIG    1        2.995   0.744   0.763  0.00  0.00    +0.308 C 
ATOM      4  N   LIG    1        4.137   1.064   0.058  0.00  0.00    -0.269 N 
ATOM      5  H   LIG    1        4.304   0.572  -0.808  0.00  0.00    +0.156 HD
ATOM      6  O   LIG    1        2.734   1.055   1.919  0.00  0.00    -0.252 OA
ENDROOT
BRANCH   2   7
ATOM      7  C   LIG    1        0.861  -0.487   0.395  0.00  0.00    +0.037 A 
ATOM      8  C   LIG    1       -0.073  -0.809  -0.623  0.00  0.00    +0.026 A 
ATOM      9  C   LIG    1       -1.377  -1.222  -0.314  0.00  0.00    +0.037 A 
ATOM     10  C   LIG    1       -1.686  -1.317   1.021  0.00  0.00    +0.115 A 
ATOM     11  C   LIG    1       -0.783  -1.050   2.008  0.00  0.00    +0.117 A 
ATOM     12  O   LIG    1       -1.333  -1.242   3.097  0.00  0.00    -0.255 OA
ATOM     13  C   LIG    1       -2.511  -1.582   2.787  0.00  0.00    +0.498 C 
ATOM     14  F   LIG    1       -3.363  -0.698   3.333  0.00  0.00    -0.147 F 
ATOM     15  F   LIG    1       -2.761  -2.787   3.326  0.00  0.00    -0.147 F 
ATOM     16  O   LIG    1       -2.754  -1.648   1.549  0.00  0.00    -0.255 OA
ATOM     17  C   LIG    1        0.505  -0.643   1.746  0.00  0.00    +0.059 A 
ENDBRANCH   2   7
BRANCH   4  18
ATOM     18  C   LIG    1        6.225   2.220  -0.203  0.00  0.00    +0.035 A 
ATOM     19  C   LIG    1        8.065   3.784  -0.063  0.00  0.00    +0.025 A 
ATOM     20  C   LIG    1        8.981   2.727  -0.116  0.00  0.00    +0.022 A 
ATOM     21  C   LIG    1        8.490   1.405  -0.206  0.00  0.00    +0.053 A 
ATOM     22  C   LIG    1        7.119   1.145  -0.258  0.00  0.00    +0.075 A 
ATOM     23 CL   LIG    1        8.562   5.433   0.042  0.00  0.00    -0.083 Cl
ATOM     24  C   LIG    1        6.693   3.530  -0.102  0.00  0.00    +0.037 A 
BRANCH  22  25
ATOM     25  C   LIG    1        10.465   2.979  -0.101  0.00  0.00    +0.419 C 
ATOM     26  F   LIG    1        10.886   3.621   1.023  0.00  0.00    -0.166 F 
ATOM     27  F   LIG    1        10.880   3.737  -1.154  0.00  0.00    -0.166 F 
ATOM     28  F   LIG    1        11.210   1.839  -0.165  0.00  0.00    -0.166 F 
ENDBRANCH  22  25
ENDBRANCH   4  18
TORSDOF 3                                   