REMARK  Name = 132190620
REMARK                            x       y       z     vdW  Elec       q    Type
REMARK                         _______ _______ _______ _____ _____    ______ ____
ROOT
ATOM      1  N   LIG    1        6.552  -0.139  -0.367  0.00  0.00    -0.269 N 
ATOM      2  H   LIG    1        5.568  -0.173  -0.367  0.00  0.00    +0.156 HD
ATOM      3  C   LIG    1        7.199  -1.365  -0.473  0.00  0.00    +0.308 C 
ATOM      4  N   LIG    1        6.256  -2.384  -0.553  0.00  0.00    -0.269 N 
ATOM      5  H   LIG    1        5.313  -2.100  -0.522  0.00  0.00    +0.156 HD
ATOM      6  O   LIG    1        8.410  -1.520  -0.494  0.00  0.00    -0.252 OA
ENDROOT
BRANCH   4   7
ATOM      7  C   LIG    1        6.477  -3.771  -0.673  0.00  0.00    +0.038 A 
ATOM      8  C   LIG    1        5.322  -4.586  -0.753  0.00  0.00    +0.027 A 
ATOM      9  C   LIG    1        5.419  -5.975  -0.882  0.00  0.00    +0.051 A 
ATOM     10  C   LIG    1        6.680  -6.521  -0.928  0.00  0.00    +0.173 A 
ATOM     11  C   LIG    1        7.808  -5.738  -0.844  0.00  0.00    +0.174 A 
ATOM     12  O   LIG    1        8.953  -6.472  -0.904  0.00  0.00    -0.395 OA
ATOM     13  C   LIG    1        8.401  -7.783  -1.081  0.00  0.00    +0.589 C 
ATOM     14  F   LIG    1        8.880  -8.593  -0.106  0.00  0.00    -0.125 F 
ATOM     15  F   LIG    1        8.831  -8.274  -2.270  0.00  0.00    -0.125 F 
ATOM     16  O   LIG    1        6.967  -7.843  -1.058  0.00  0.00    -0.395 OA
ATOM     17  C   LIG    1        7.741  -4.363  -0.717  0.00  0.00    +0.073 A 
ENDBRANCH   4   7
BRANCH   1  22
ATOM     18 CL   LIG    1        8.562   5.433   0.042  0.00  0.00    -0.083 Cl
ATOM     19  C   LIG    1        8.065   3.784  -0.063  0.00  0.00    +0.053 A 
ATOM     20  C   LIG    1        8.981   2.727  -0.116  0.00  0.00    +0.075 A 
ATOM     21  C   LIG    1        8.490   1.405  -0.206  0.00  0.00    +0.037 A 
ATOM     22  C   LIG    1        7.119   1.145  -0.258  0.00  0.00    +0.035 A 
ATOM     23  C   LIG    1        6.225   2.220  -0.203  0.00  0.00    +0.025 A 
ATOM     24  C   LIG    1        6.693   3.530  -0.102  0.00  0.00    +0.022 A 
BRANCH  20  25
ATOM     25  C   LIG    1       10.465   2.979  -0.101  0.00  0.00    +0.419 C 
ATOM     26  F   LIG    1       10.886   3.621   1.023  0.00  0.00    -0.166 F 
ATOM     27  F   LIG    1       10.880   3.737  -1.154  0.00  0.00    -0.166 F 
ATOM     28  F   LIG    1       11.210   1.839  -0.165  0.00  0.00    -0.166 F 
ENDBRANCH  20  25
ENDBRANCH   1  22
TORSDOF 3