REMARK SMILES O=C(Nc1ccc2c(c1)OC(F)(F)O2)Nc1ccc(Cl)c(C(F)(F)F)c1
REMARK SMILES IDX 20 1 16 2 21 3 26 4 17 5 19 6 18 7 22 8 23 9 24 10 25 11
REMARK SMILES IDX 15 12 2 13 1 15 3 16 4 18 9 19 5 20 8 21 6 22 10 23 7 24
REMARK SMILES IDX 11 25 14 26 12 27 13 28
REMARK H PARENT 15 14 3 17
REMARK Flexibility Score: inf
ROOT
ATOM      1  Cl  UNL     1       6.428  -2.267  -0.000  1.00  0.00    -0.084 Cl
ATOM      2  C   UNL     1       2.503  -0.033  -0.001  1.00  0.00     0.043 A 
ATOM      3  C   UNL     1       4.919   0.003   0.001  1.00  0.00     0.076 A 
ATOM      4  C   UNL     1       3.701   0.682  -0.000  1.00  0.00     0.040 A 
ATOM      5  C   UNL     1       2.524  -1.428  -0.001  1.00  0.00     0.028 A 
ATOM      6  C   UNL     1       4.940  -1.392   0.001  1.00  0.00     0.053 A 
ATOM      7  C   UNL     1       3.742  -2.107   0.000  1.00  0.00     0.023 A 
ENDROOT
BRANCH   3   8
ATOM      8  C   UNL     1       6.180   0.806   0.000  1.00  0.00     0.417 C 
ATOM      9  F   UNL     1       5.943   2.149  -0.001  1.00  0.00    -0.166 F 
ATOM     10  F   UNL     1       6.974   0.573   1.085  1.00  0.00    -0.166 F 
ATOM     11  F   UNL     1       6.974   0.570  -1.083  1.00  0.00    -0.166 F 
ENDBRANCH   3   8
BRANCH   2  12
ATOM     12  N   UNL     1       1.268   0.656  -0.001  1.00  0.00    -0.308 N 
ATOM     13  C   UNL     1      -0.026   0.110  -0.001  1.00  0.00     0.323 C 
ATOM     14  H   UNL     1       1.335   1.670  -0.000  1.00  0.00     0.171 HD
ATOM     15  O   UNL     1      -0.291  -1.088  -0.001  1.00  0.00    -0.248 OA
ATOM     16  N   UNL     1      -0.989   1.149  -0.000  1.00  0.00    -0.308 N 
ATOM     17  H   UNL     1      -0.621   2.097  -0.000  1.00  0.00     0.171 HD
BRANCH  16  18
ATOM     18  C   UNL     1      -2.381   1.046  -0.000  1.00  0.00     0.046 A 
ATOM     19  C   UNL     1      -2.982  -0.214   0.000  1.00  0.00     0.077 A 
ATOM     20  C   UNL     1      -3.165   2.214  -0.001  1.00  0.00     0.030 A 
ATOM     21  C   UNL     1      -4.361  -0.266   0.001  1.00  0.00     0.174 A 
ATOM     22  C   UNL     1      -4.559   2.134  -0.000  1.00  0.00     0.053 A 
ATOM     23  O   UNL     1      -5.117  -1.399   0.002  1.00  0.00    -0.395 OA
ATOM     24  C   UNL     1      -5.129   0.877   0.001  1.00  0.00     0.172 A 
ATOM     25  C   UNL     1      -6.434  -0.829   0.000  1.00  0.00     0.586 C 
ATOM     26  O   UNL     1      -6.463   0.606   0.001  1.00  0.00    -0.395 OA
ATOM     27  F   UNL     1      -7.101  -1.277   1.093  1.00  0.00    -0.125 F 
ATOM     28  F   UNL     1      -7.098  -1.275  -1.095  1.00  0.00    -0.125 F 
ENDBRANCH  16  18
ENDBRANCH   2  12
TORSDOF 3
