REMARK SMILES O=C(Nc1ccc2c(c1)OC(F)(F)O2)Nc1ccc(Cl)c(C(F)(F)F)c1
REMARK SMILES IDX 20 1 16 2 21 3 26 4 17 5 19 6 18 7 22 8 23 9 24 10 25 11
REMARK SMILES IDX 15 12 2 13 1 15 3 16 4 18 9 19 5 20 8 21 6 22 10 23 7 24
REMARK SMILES IDX 11 25 14 26 12 27 13 28
REMARK H PARENT 15 14 3 17
REMARK Flexibility Score: inf
ROOT
ATOM      1  Cl  UNL     1      18.158  -4.742   9.498  1.00  0.00    -0.084 Cl
ATOM      2  C   UNL     1      18.778  -0.323  10.188  1.00  0.00     0.043 A 
ATOM      3  C   UNL     1      17.646  -2.108   9.018  1.00  0.00     0.076 A 
ATOM      4  C   UNL     1      17.846  -0.746   9.241  1.00  0.00     0.040 A 
ATOM      5  C   UNL     1      19.511  -1.262  10.913  1.00  0.00     0.028 A 
ATOM      6  C   UNL     1      18.379  -3.048   9.743  1.00  0.00     0.053 A 
ATOM      7  C   UNL     1      19.312  -2.625  10.691  1.00  0.00     0.023 A 
ENDROOT
BRANCH   3   8
ATOM      8  C   UNL     1      16.637  -2.521   7.996  1.00  0.00     0.417 C 
ATOM      9  F   UNL     1      16.029  -1.454   7.403  1.00  0.00    -0.166 F 
ATOM     10  F   UNL     1      17.164  -3.259   6.977  1.00  0.00    -0.166 F 
ATOM     11  F   UNL     1      15.627  -3.283   8.507  1.00  0.00    -0.166 F 
ENDBRANCH   3   8
BRANCH   2  12
ATOM     12  N   UNL     1      18.982   1.059  10.412  1.00  0.00    -0.308 N 
ATOM     13  C   UNL     1      19.869   1.667  11.314  1.00  0.00     0.323 C 
ATOM     14  H   UNL     1      18.411   1.681   9.845  1.00  0.00     0.171 HD
ATOM     15  O   UNL     1      20.629   1.072  12.072  1.00  0.00    -0.248 OA
ATOM     16  N   UNL     1      19.761   3.076  11.225  1.00  0.00    -0.308 N 
ATOM     17  H   UNL     1      19.086   3.428  10.550  1.00  0.00     0.171 HD
BRANCH  16  18
ATOM     18  C   UNL     1      20.457   4.051  11.940  1.00  0.00     0.046 A 
ATOM     19  C   UNL     1      21.407   3.666  12.890  1.00  0.00     0.077 A 
ATOM     20  C   UNL     1      20.197   5.411  11.698  1.00  0.00     0.030 A 
ATOM     21  C   UNL     1      22.071   4.664  13.573  1.00  0.00     0.174 A 
ATOM     22  C   UNL     1      20.884   6.403  12.403  1.00  0.00     0.053 A 
ATOM     23  O   UNL     1      23.023   4.480  14.528  1.00  0.00    -0.395 OA
ATOM     24  C   UNL     1      21.816   5.997  13.335  1.00  0.00     0.172 A 
ATOM     25  C   UNL     1      23.326   5.844  14.855  1.00  0.00     0.586 C 
ATOM     26  O   UNL     1      22.577   6.817  14.112  1.00  0.00    -0.395 OA
ATOM     27  F   UNL     1      24.648   6.058  14.638  1.00  0.00    -0.125 F 
ATOM     28  F   UNL     1      23.093   6.035  16.177  1.00  0.00    -0.125 F 
ENDBRANCH  16  18
ENDBRANCH   2  12
TORSDOF 3
