REMARK SMILES O=C(Nc1ccc2c(c1)OC(F)(F)O2)Nc1ccc(Cl)c(C(F)(F)F)c1
REMARK SMILES IDX 20 1 16 2 21 3 26 4 17 5 19 6 18 7 22 8 23 9 24 10 25 11
REMARK SMILES IDX 15 12 2 13 1 15 3 16 4 18 9 19 5 20 8 21 6 22 10 23 7 24
REMARK SMILES IDX 11 25 14 26 12 27 13 28
REMARK H PARENT 15 14 3 17
REMARK Flexibility Score: inf
ROOT
ATOM      1  Cl  UNL     1     -14.882  -3.837  -6.803  1.00  0.00    -0.084 Cl
ATOM      2  C   UNL     1     -18.100  -1.636  -9.082  1.00  0.00     0.043 A 
ATOM      3  C   UNL     1     -15.944  -1.626  -7.991  1.00  0.00     0.076 A 
ATOM      4  C   UNL     1     -16.944  -0.957  -8.697  1.00  0.00     0.040 A 
ATOM      5  C   UNL     1     -18.255  -2.985  -8.763  1.00  0.00     0.028 A 
ATOM      6  C   UNL     1     -16.099  -2.975  -7.672  1.00  0.00     0.053 A 
ATOM      7  C   UNL     1     -17.255  -3.655  -8.057  1.00  0.00     0.023 A 
ENDROOT
BRANCH   3   8
ATOM      8  C   UNL     1     -14.720  -0.863  -7.598  1.00  0.00     0.417 C 
ATOM      9  F   UNL     1     -14.763   0.438  -8.006  1.00  0.00    -0.166 F 
ATOM     10  F   UNL     1     -14.516  -0.820  -6.250  1.00  0.00    -0.166 F 
ATOM     11  F   UNL     1     -13.569  -1.376  -8.120  1.00  0.00    -0.166 F 
ENDBRANCH   3   8
BRANCH   2  12
ATOM     12  N   UNL     1     -19.115  -0.957  -9.796  1.00  0.00    -0.308 N 
ATOM     13  C   UNL     1     -20.336  -1.471 -10.262  1.00  0.00     0.323 C 
ATOM     14  H   UNL     1     -18.929   0.023  -9.991  1.00  0.00     0.171 HD
ATOM     15  O   UNL     1     -20.721  -2.627 -10.116  1.00  0.00    -0.248 OA
ATOM     16  N   UNL     1     -21.064  -0.457 -10.930  1.00  0.00    -0.308 N 
ATOM     17  H   UNL     1     -20.617   0.456 -10.974  1.00  0.00     0.171 HD
BRANCH  16  18
ATOM     18  C   UNL     1     -22.317  -0.541 -11.539  1.00  0.00     0.046 A 
ATOM     19  C   UNL     1     -23.010  -1.754 -11.531  1.00  0.00     0.077 A 
ATOM     20  C   UNL     1     -22.869   0.596 -12.155  1.00  0.00     0.030 A 
ATOM     21  C   UNL     1     -24.244  -1.790 -12.145  1.00  0.00     0.174 A 
ATOM     22  C   UNL     1     -24.122   0.533 -12.770  1.00  0.00     0.053 A 
ATOM     23  O   UNL     1     -25.060  -2.877 -12.236  1.00  0.00    -0.395 OA
ATOM     24  C   UNL     1     -24.786  -0.676 -12.749  1.00  0.00     0.172 A 
ATOM     25  C   UNL     1     -26.161  -2.312 -12.962  1.00  0.00     0.586 C 
ATOM     26  O   UNL     1     -26.009  -0.924 -13.293  1.00  0.00    -0.395 OA
ATOM     27  F   UNL     1     -27.289  -2.460 -12.222  1.00  0.00    -0.125 F 
ATOM     28  F   UNL     1     -26.330  -3.015 -14.109  1.00  0.00    -0.125 F 
ENDBRANCH  16  18
ENDBRANCH   2  12
TORSDOF 3
