REMARK SMILES O=C(Nc1ccc2c(c1)OC(F)(F)O2)Nc1ccc(Cl)c(C(F)(F)F)c1
REMARK SMILES IDX 20 1 16 2 21 3 26 4 17 5 19 6 18 7 22 8 23 9 24 10 25 11
REMARK SMILES IDX 15 12 2 13 1 15 3 16 4 18 9 19 5 20 8 21 6 22 10 23 7 24
REMARK SMILES IDX 11 25 14 26 12 27 13 28
REMARK H PARENT 15 14 3 17
REMARK Flexibility Score: inf
ROOT
ATOM      1  Cl  UNL     1      18.001  33.201 102.575  1.00  0.00    -0.084 Cl
ATOM      2  C   UNL     1      16.076  36.829 100.698  1.00  0.00     0.043 A 
ATOM      3  C   UNL     1      16.982  34.601 100.470  1.00  0.00     0.076 A 
ATOM      4  C   UNL     1      16.387  35.727  99.901  1.00  0.00     0.040 A 
ATOM      5  C   UNL     1      16.360  36.805 102.064  1.00  0.00     0.028 A 
ATOM      6  C   UNL     1      17.267  34.577 101.835  1.00  0.00     0.053 A 
ATOM      7  C   UNL     1      16.956  35.679 102.632  1.00  0.00     0.023 A 
ENDROOT
BRANCH   3   8
ATOM      8  C   UNL     1      17.298  33.440  99.583  1.00  0.00     0.417 C 
ATOM      9  F   UNL     1      16.941  33.663  98.286  1.00  0.00    -0.166 F 
ATOM     10  F   UNL     1      18.626  33.125  99.552  1.00  0.00    -0.166 F 
ATOM     11  F   UNL     1      16.665  32.288  99.948  1.00  0.00    -0.166 F 
ENDBRANCH   3   8
BRANCH   2  12
ATOM     12  N   UNL     1      15.473  37.971 100.121  1.00  0.00    -0.308 N 
ATOM     13  C   UNL     1      15.093  39.163 100.759  1.00  0.00     0.323 C 
ATOM     14  H   UNL     1      15.297  37.913  99.121  1.00  0.00     0.171 HD
ATOM     15  O   UNL     1      15.230  39.404 101.954  1.00  0.00    -0.248 OA
ATOM     16  N   UNL     1      14.524  40.055  99.817  1.00  0.00    -0.308 N 
ATOM     17  H   UNL     1      14.475  39.718  98.859  1.00  0.00     0.171 HD
BRANCH  16  18
ATOM     18  C   UNL     1      14.019  41.339 100.028  1.00  0.00     0.046 A 
ATOM     19  C   UNL     1      14.043  41.889 101.312  1.00  0.00     0.077 A 
ATOM     20  C   UNL     1      13.491  42.066  98.947  1.00  0.00     0.030 A 
ATOM     21  C   UNL     1      13.533  43.161 101.472  1.00  0.00     0.174 A 
ATOM     22  C   UNL     1      12.981  43.352  99.135  1.00  0.00     0.053 A 
ATOM     23  O   UNL     1      13.473  43.855 102.642  1.00  0.00    -0.395 OA
ATOM     24  C   UNL     1      13.016  43.874 100.412  1.00  0.00     0.172 A 
ATOM     25  C   UNL     1      12.861  45.072 102.189  1.00  0.00     0.586 C 
ATOM     26  O   UNL     1      12.567  45.105 100.784  1.00  0.00    -0.395 OA
ATOM     27  F   UNL     1      13.687  46.107 102.482  1.00  0.00    -0.125 F 
ATOM     28  F   UNL     1      11.708  45.261 102.877  1.00  0.00    -0.125 F 
ENDBRANCH  16  18
ENDBRANCH   2  12
TORSDOF 3
