REMARK SMILES O=C(Nc1ccc2c(c1)OC(F)(F)O2)Nc1ccc(Cl)c(C(F)(F)F)c1
REMARK SMILES IDX 20 1 16 2 21 3 26 4 17 5 19 6 18 7 22 8 23 9 24 10 25 11
REMARK SMILES IDX 15 12 2 13 1 15 3 16 4 18 9 19 5 20 8 21 6 22 10 23 7 24
REMARK SMILES IDX 11 25 14 26 12 27 13 28
REMARK H PARENT 15 14 3 17
REMARK Flexibility Score: inf
ROOT
ATOM      1  Cl  UNL     1      81.050  -0.592   7.937  1.00  0.00    -0.084 Cl
ATOM      2  C   UNL     1      83.999   1.451  10.678  1.00  0.00     0.043 A 
ATOM      3  C   UNL     1      82.199   1.602   9.074  1.00  0.00     0.076 A 
ATOM      4  C   UNL     1      83.114   2.222   9.925  1.00  0.00     0.040 A 
ATOM      5  C   UNL     1      83.970   0.060  10.580  1.00  0.00     0.028 A 
ATOM      6  C   UNL     1      82.170   0.211   8.976  1.00  0.00     0.053 A 
ATOM      7  C   UNL     1      83.055  -0.560   9.729  1.00  0.00     0.023 A 
ENDROOT
BRANCH   3   8
ATOM      8  C   UNL     1      81.266   2.463   8.286  1.00  0.00     0.417 C 
ATOM      9  F   UNL     1      81.454   3.792   8.525  1.00  0.00    -0.166 F 
ATOM     10  F   UNL     1      81.393   2.310   6.936  1.00  0.00    -0.166 F 
ATOM     11  F   UNL     1      79.949   2.223   8.552  1.00  0.00    -0.166 F 
ENDBRANCH   3   8
BRANCH   2  12
ATOM     12  N   UNL     1      84.928   2.080  11.540  1.00  0.00    -0.308 N 
ATOM     13  C   UNL     1      85.888   1.474  12.367  1.00  0.00     0.323 C 
ATOM     14  H   UNL     1      84.889   3.096  11.556  1.00  0.00     0.171 HD
ATOM     15  O   UNL     1      86.074   0.266  12.470  1.00  0.00    -0.248 OA
ATOM     16  N   UNL     1      86.617   2.465  13.068  1.00  0.00    -0.308 N 
ATOM     17  H   UNL     1      86.352   3.429  12.881  1.00  0.00     0.171 HD
BRANCH  16  18
ATOM     18  C   UNL     1      87.655   2.297  13.986  1.00  0.00     0.046 A 
ATOM     19  C   UNL     1      88.091   1.010  14.309  1.00  0.00     0.077 A 
ATOM     20  C   UNL     1      88.251   3.425  14.577  1.00  0.00     0.030 A 
ATOM     21  C   UNL     1      89.120   0.893  15.221  1.00  0.00     0.174 A 
ATOM     22  C   UNL     1      89.291   3.279  15.498  1.00  0.00     0.053 A 
ATOM     23  O   UNL     1      89.673  -0.273  15.655  1.00  0.00    -0.395 OA
ATOM     24  C   UNL     1      89.704   1.998  15.800  1.00  0.00     0.172 A 
ATOM     25  C   UNL     1      90.660   0.233  16.564  1.00  0.00     0.586 C 
ATOM     26  O   UNL     1      90.698   1.664  16.670  1.00  0.00    -0.395 OA
ATOM     27  F   UNL     1      91.881  -0.204  16.166  1.00  0.00    -0.125 F 
ATOM     28  F   UNL     1      90.422  -0.286  17.795  1.00  0.00    -0.125 F 
ENDBRANCH  16  18
ENDBRANCH   2  12
TORSDOF 3
