REMARK SMILES CNC(=O)c1cc(Oc2ccc(NC(=O)Nc3ccc(Cl)c(C(F)(F)F)c3)cc2)ccn1
REMARK SMILES IDX 12 1 9 2 11 3 28 4 10 5 29 6 13 7 16 8 14 9 15 11 17 13
REMARK SMILES IDX 21 14 20 15 22 16 19 17 27 18 18 19 23 20 24 21 25 22 26 23
REMARK SMILES IDX 8 24 7 25 6 26 30 27 5 28 31 29 32 30 3 31 4 32 2 33 1 34
REMARK H PARENT 16 10 13 12 2 35
REMARK Flexibility Score: inf
ROOT
ATOM      1  C   UNL     1      90.381   2.113   9.412  1.00  0.00     0.043 A 
ATOM      2  C   UNL     1      89.520   1.161   6.958  1.00  0.00     0.127 A 
ATOM      3  C   UNL     1      89.957   0.799   9.306  1.00  0.00     0.030 A 
ATOM      4  C   UNL     1      90.385   2.961   8.317  1.00  0.00     0.030 A 
ATOM      5  C   UNL     1      89.523   0.319   8.070  1.00  0.00     0.049 A 
ATOM      6  C   UNL     1      89.951   2.482   7.081  1.00  0.00     0.049 A 
ENDROOT
BRANCH   1   7
ATOM      7  N   UNL     1      90.821   2.599  10.666  1.00  0.00    -0.308 N 
ATOM      8  N   UNL     1      91.626   3.958  12.352  1.00  0.00    -0.308 N 
ATOM      9  C   UNL     1      91.286   3.887  10.979  1.00  0.00     0.323 C 
ATOM     10  H   UNL     1      91.492   3.104  12.888  1.00  0.00     0.171 HD
ATOM     11  O   UNL     1      91.385   4.817  10.186  1.00  0.00    -0.248 OA
ATOM     12  H   UNL     1      90.794   1.927  11.429  1.00  0.00     0.171 HD
BRANCH   8  13
ATOM     13  C   UNL     1      92.125   5.045  13.070  1.00  0.00     0.043 A 
ATOM     14  Cl  UNL     1      93.740   8.585  15.360  1.00  0.00    -0.084 Cl
ATOM     15  C   UNL     1      93.122   7.219  14.505  1.00  0.00     0.053 A 
ATOM     16  C   UNL     1      92.902   6.001  15.148  1.00  0.00     0.076 A 
ATOM     17  C   UNL     1      92.844   7.350  13.145  1.00  0.00     0.023 A 
ATOM     18  C   UNL     1      92.403   4.914  14.431  1.00  0.00     0.040 A 
ATOM     19  C   UNL     1      92.345   6.263  12.427  1.00  0.00     0.028 A 
BRANCH  16  20
ATOM     20  C   UNL     1      93.189   5.819  16.604  1.00  0.00     0.417 C 
ATOM     21  F   UNL     1      92.915   4.563  17.060  1.00  0.00    -0.166 F 
ATOM     22  F   UNL     1      94.494   6.044  16.933  1.00  0.00    -0.166 F 
ATOM     23  F   UNL     1      92.460   6.664  17.389  1.00  0.00    -0.166 F 
ENDBRANCH  16  20
ENDBRANCH   8  13
ENDBRANCH   1   7
BRANCH   2  24
ATOM     24  O   UNL     1      89.096   0.693   5.752  1.00  0.00    -0.457 OA
BRANCH  24  25
ATOM     25  C   UNL     1      89.858   1.001   4.638  1.00  0.00     0.131 A 
ATOM     26  C   UNL     1      91.229   0.869   4.701  1.00  0.00     0.081 A 
ATOM     27  C   UNL     1      89.229   1.431   3.489  1.00  0.00     0.067 A 
ATOM     28  C   UNL     1      91.946   1.188   3.559  1.00  0.00     0.131 A 
ATOM     29  C   UNL     1      90.035   1.725   2.401  1.00  0.00     0.116 A 
ATOM     30  N   UNL     1      91.383   1.614   2.407  1.00  0.00    -0.251 NA
BRANCH  28  31
ATOM     31  C   UNL     1      93.394   1.074   3.549  1.00  0.00     0.269 C 
ATOM     32  O   UNL     1      94.005   0.671   4.556  1.00  0.00    -0.268 OA
ATOM     33  N   UNL     1      94.051   1.413   2.360  1.00  0.00    -0.354 N 
ATOM     34  C   UNL     1      95.483   1.330   2.185  1.00  0.00     0.143 C 
ATOM     35  H   UNL     1      93.495   1.706   1.561  1.00  0.00     0.163 HD
ENDBRANCH  28  31
ENDBRANCH  24  25
ENDBRANCH   2  24
TORSDOF 6
