REMARK SMILES CNC(=O)c1cc(Oc2ccc(NC(=O)Nc3ccc(Cl)c(C(F)(F)F)c3)cc2)ccn1
REMARK SMILES IDX 12 1 9 2 11 3 28 4 10 5 29 6 13 7 16 8 14 9 15 11 17 13
REMARK SMILES IDX 21 14 20 15 22 16 19 17 27 18 18 19 23 20 24 21 25 22 26 23
REMARK SMILES IDX 8 24 7 25 6 26 30 27 5 28 31 29 32 30 3 31 4 32 2 33 1 34
REMARK H PARENT 16 10 13 12 2 35
REMARK Flexibility Score: inf
ROOT
ATOM      1  C   UNL     1      82.097   1.450  10.370  1.00  0.00     0.043 A 
ATOM      2  C   UNL     1      80.056   2.353   8.729  1.00  0.00     0.127 A 
ATOM      3  C   UNL     1      81.115   0.563   9.959  1.00  0.00     0.030 A 
ATOM      4  C   UNL     1      82.079   2.779   9.979  1.00  0.00     0.030 A 
ATOM      5  C   UNL     1      80.088   1.018   9.132  1.00  0.00     0.049 A 
ATOM      6  C   UNL     1      81.051   3.233   9.152  1.00  0.00     0.049 A 
ENDROOT
BRANCH   1   7
ATOM      7  N   UNL     1      83.139   0.989  11.208  1.00  0.00    -0.308 N 
ATOM      8  N   UNL     1      85.034   0.882  12.524  1.00  0.00    -0.308 N 
ATOM      9  C   UNL     1      84.217   1.722  11.730  1.00  0.00     0.323 C 
ATOM     10  H   UNL     1      84.736  -0.087  12.598  1.00  0.00     0.171 HD
ATOM     11  O   UNL     1      84.426   2.915  11.531  1.00  0.00    -0.248 OA
ATOM     12  H   UNL     1      83.094   0.005  11.459  1.00  0.00     0.171 HD
BRANCH   8  13
ATOM     13  C   UNL     1      86.199   1.206  13.221  1.00  0.00     0.043 A 
ATOM     14  Cl  UNL     1      89.967   2.292  15.459  1.00  0.00    -0.084 Cl
ATOM     15  C   UNL     1      88.528   1.854  14.613  1.00  0.00     0.053 A 
ATOM     16  C   UNL     1      88.034   0.551  14.649  1.00  0.00     0.076 A 
ATOM     17  C   UNL     1      87.858   2.834  13.880  1.00  0.00     0.023 A 
ATOM     18  C   UNL     1      86.869   0.226  13.953  1.00  0.00     0.040 A 
ATOM     19  C   UNL     1      86.693   2.510  13.184  1.00  0.00     0.028 A 
BRANCH  16  20
ATOM     20  C   UNL     1      88.724  -0.528  15.421  1.00  0.00     0.417 C 
ATOM     21  F   UNL     1      88.099  -1.739  15.341  1.00  0.00    -0.166 F 
ATOM     22  F   UNL     1      90.004  -0.757  15.009  1.00  0.00    -0.166 F 
ATOM     23  F   UNL     1      88.809  -0.244  16.752  1.00  0.00    -0.166 F 
ENDBRANCH  16  20
ENDBRANCH   8  13
ENDBRANCH   1   7
BRANCH   2  24
ATOM     24  O   UNL     1      79.052   2.797   7.924  1.00  0.00    -0.457 OA
BRANCH  24  25
ATOM     25  C   UNL     1      79.396   3.602   6.851  1.00  0.00     0.131 A 
ATOM     26  C   UNL     1      80.469   3.250   6.061  1.00  0.00     0.081 A 
ATOM     27  C   UNL     1      78.656   4.737   6.597  1.00  0.00     0.067 A 
ATOM     28  C   UNL     1      80.771   4.088   4.999  1.00  0.00     0.131 A 
ATOM     29  C   UNL     1      79.039   5.508   5.511  1.00  0.00     0.116 A 
ATOM     30  N   UNL     1      80.082   5.212   4.703  1.00  0.00    -0.251 NA
BRANCH  28  31
ATOM     31  C   UNL     1      81.888   3.784   4.121  1.00  0.00     0.269 C 
ATOM     32  O   UNL     1      82.572   2.759   4.299  1.00  0.00    -0.268 OA
ATOM     33  N   UNL     1      82.133   4.676   3.070  1.00  0.00    -0.354 N 
ATOM     34  C   UNL     1      83.190   4.499   2.100  1.00  0.00     0.143 C 
ATOM     35  H   UNL     1      81.519   5.478   2.957  1.00  0.00     0.163 HD
ENDBRANCH  28  31
ENDBRANCH  24  25
ENDBRANCH   2  24
TORSDOF 6
