REMARK SMILES Cc1ccc(NC(=O)c2ccc(CN3CCN(C)CC3)cc2)cc1Nc1nccc(-c2cccnc2)n1
REMARK SMILES IDX 1 1 2 2 3 3 4 4 5 5 23 6 24 7 25 8 26 9 27 10 37 11 28 12
REMARK SMILES IDX 30 13 29 14 31 15 32 16 36 17 33 18 35 19 34 20 6 21 7 22
REMARK SMILES IDX 8 23 9 24 10 25 22 26 11 27 21 28 12 29 13 30 14 31 15 32
REMARK SMILES IDX 20 33 16 34 19 35 17 36 18 37
REMARK H PARENT
REMARK Flexibility Score: inf
ROOT
ATOM      1  C   UNL     1      -2.844  -2.385   2.611  1.00  0.00    -0.038 C 
ATOM      2  C   UNL     1      -1.760  -1.365   2.577  1.00  0.00    -0.027 A 
ATOM      3  C   UNL     1      -0.585  -1.706   3.230  1.00  0.00    -0.055 A 
ATOM      4  C   UNL     1       0.612  -1.108   2.862  1.00  0.00    -0.038 A 
ATOM      5  C   UNL     1       0.582  -0.050   1.970  1.00  0.00     0.043 A 
ATOM      6  C   UNL     1      -0.638   0.387   1.465  1.00  0.00    -0.015 A 
ATOM      7  C   UNL     1      -1.821  -0.290   1.699  1.00  0.00     0.046 A 
ENDROOT
BRANCH   7   8
ATOM      8  N   UNL     1      -2.834  -0.349   0.706  1.00  0.00    -0.324 N 
BRANCH   8   9
ATOM      9  C   UNL     1      -4.028   0.404   0.740  1.00  0.00     0.227 A 
ATOM     10  N   UNL     1      -4.088   1.730   0.925  1.00  0.00    -0.221 NA
ATOM     11  N   UNL     1      -5.140  -0.199   0.254  1.00  0.00    -0.213 NA
ATOM     12  C   UNL     1      -5.096   2.469   0.412  1.00  0.00     0.033 A 
ATOM     13  C   UNL     1      -6.176   0.480  -0.253  1.00  0.00     0.077 A 
ATOM     14  C   UNL     1      -6.139   1.851  -0.252  1.00  0.00    -0.017 A 
BRANCH  13  15
ATOM     15  C   UNL     1      -7.449  -0.236  -0.356  1.00  0.00     0.019 A 
ATOM     16  C   UNL     1      -8.367   0.096  -1.343  1.00  0.00    -0.050 A 
ATOM     17  C   UNL     1      -7.957  -0.861   0.772  1.00  0.00     0.036 A 
ATOM     18  C   UNL     1      -9.669  -0.287  -1.163  1.00  0.00    -0.043 A 
ATOM     19  N   UNL     1      -9.263  -0.933   1.052  1.00  0.00    -0.264 NA
ATOM     20  C   UNL     1     -10.138  -0.788   0.043  1.00  0.00     0.027 A 
ENDBRANCH  13  15
ENDBRANCH   8   9
ENDBRANCH   7   8
BRANCH   5  21
ATOM     21  N   UNL     1       1.826   0.306   1.355  1.00  0.00    -0.322 N 
ATOM     22  C   UNL     1       1.848   0.304  -0.078  1.00  0.00     0.255 C 
ATOM     23  O   UNL     1       0.858  -0.167  -0.715  1.00  0.00    -0.269 OA
BRANCH  22  24
ATOM     24  C   UNL     1       3.103   0.395  -0.817  1.00  0.00     0.040 A 
ATOM     25  C   UNL     1       3.365   1.539  -1.549  1.00  0.00    -0.049 A 
ATOM     26  C   UNL     1       3.656  -0.798  -1.255  1.00  0.00    -0.049 A 
ATOM     27  C   UNL     1       4.500   1.596  -2.342  1.00  0.00    -0.057 A 
ATOM     28  C   UNL     1       4.541  -0.762  -2.326  1.00  0.00    -0.057 A 
ATOM     29  C   UNL     1       5.220   0.426  -2.550  1.00  0.00    -0.034 A 
BRANCH  29  30
ATOM     30  C   UNL     1       6.636   0.458  -3.022  1.00  0.00     0.023 C 
BRANCH  30  31
ATOM     31  N   UNL     1       7.537   0.034  -1.971  1.00  0.00    -0.297 NA
ATOM     32  C   UNL     1       7.060  -1.185  -1.368  1.00  0.00     0.011 C 
ATOM     33  C   UNL     1       7.661   1.100  -0.993  1.00  0.00     0.011 C 
ATOM     34  C   UNL     1       8.011  -1.671  -0.309  1.00  0.00     0.011 C 
ATOM     35  C   UNL     1       8.068   0.569   0.370  1.00  0.00     0.011 C 
ATOM     36  N   UNL     1       8.859  -0.625   0.203  1.00  0.00    -0.304 NA
ATOM     37  C   UNL     1      10.049  -0.419  -0.583  1.00  0.00    -0.013 C 
ENDBRANCH  30  31
ENDBRANCH  29  30
ENDBRANCH  22  24
ENDBRANCH   5  21
TORSDOF 7
