REMARK SMILES CNC(=O)c1cc(Oc2ccc(NC(=O)Nc3ccc(Cl)c(C(F)(F)F)c3)cc2)ccn1
REMARK SMILES IDX 12 1 9 2 11 3 28 4 10 5 29 6 13 7 16 8 14 9 15 11 17 13
REMARK SMILES IDX 21 14 20 15 22 16 19 17 27 18 18 19 23 20 24 21 25 22 26 23
REMARK SMILES IDX 8 24 7 25 6 26 30 27 5 28 31 29 32 30 3 31 4 32 2 33 1 34
REMARK H PARENT 16 10 13 12 2 35
REMARK Flexibility Score: inf
ROOT
ATOM      1  C   UNL     1      92.255   0.492   8.721  1.00  0.00     0.043 A 
ATOM      2  C   UNL     1      91.635   2.159   6.598  1.00  0.00     0.127 A 
ATOM      3  C   UNL     1      90.933   0.632   8.333  1.00  0.00     0.030 A 
ATOM      4  C   UNL     1      93.274   1.167   8.070  1.00  0.00     0.030 A 
ATOM      5  C   UNL     1      90.620   1.471   7.264  1.00  0.00     0.049 A 
ATOM      6  C   UNL     1      92.962   2.007   7.001  1.00  0.00     0.049 A 
ENDROOT
BRANCH   1   7
ATOM      7  N   UNL     1      92.572  -0.359   9.806  1.00  0.00    -0.308 N 
ATOM      8  N   UNL     1      93.173  -2.195  11.074  1.00  0.00    -0.308 N 
ATOM      9  C   UNL     1      92.940  -1.714   9.762  1.00  0.00     0.323 C 
ATOM     10  H   UNL     1      93.044  -1.520  11.824  1.00  0.00     0.171 HD
ATOM     11  O   UNL     1      93.046  -2.387   8.743  1.00  0.00    -0.248 OA
ATOM     12  H   UNL     1      92.524   0.070  10.727  1.00  0.00     0.171 HD
BRANCH   8  13
ATOM     13  C   UNL     1      93.554  -3.475  11.477  1.00  0.00     0.043 A 
ATOM     14  Cl  UNL     1      94.823  -7.613  12.762  1.00  0.00    -0.084 Cl
ATOM     15  C   UNL     1      94.318  -6.033  12.283  1.00  0.00     0.053 A 
ATOM     16  C   UNL     1      93.075  -5.525  12.661  1.00  0.00     0.076 A 
ATOM     17  C   UNL     1      95.178  -5.263  11.503  1.00  0.00     0.023 A 
ATOM     18  C   UNL     1      92.693  -4.246  12.259  1.00  0.00     0.040 A 
ATOM     19  C   UNL     1      94.797  -3.983  11.099  1.00  0.00     0.028 A 
BRANCH  16  20
ATOM     20  C   UNL     1      92.122  -6.320  13.496  1.00  0.00     0.417 C 
ATOM     21  F   UNL     1      90.971  -5.651  13.794  1.00  0.00    -0.166 F 
ATOM     22  F   UNL     1      91.720  -7.482  12.904  1.00  0.00    -0.166 F 
ATOM     23  F   UNL     1      92.660  -6.684  14.696  1.00  0.00    -0.166 F 
ENDBRANCH  16  20
ENDBRANCH   8  13
ENDBRANCH   1   7
BRANCH   2  24
ATOM     24  O   UNL     1      91.329   2.979   5.555  1.00  0.00    -0.457 OA
BRANCH  24  25
ATOM     25  C   UNL     1      91.737   2.590   4.291  1.00  0.00     0.131 A 
ATOM     26  C   UNL     1      91.250   1.416   3.757  1.00  0.00     0.081 A 
ATOM     27  C   UNL     1      92.618   3.387   3.592  1.00  0.00     0.067 A 
ATOM     28  C   UNL     1      91.687   1.072   2.487  1.00  0.00     0.131 A 
ATOM     29  C   UNL     1      92.994   2.956   2.330  1.00  0.00     0.116 A 
ATOM     30  N   UNL     1      92.549   1.814   1.757  1.00  0.00    -0.251 NA
BRANCH  28  31
ATOM     31  C   UNL     1      91.218  -0.151   1.859  1.00  0.00     0.269 C 
ATOM     32  O   UNL     1      90.392  -0.883   2.434  1.00  0.00    -0.268 OA
ATOM     33  N   UNL     1      91.717  -0.443   0.584  1.00  0.00    -0.354 N 
ATOM     34  C   UNL     1      91.330  -1.607  -0.180  1.00  0.00     0.143 C 
ATOM     35  H   UNL     1      92.366   0.210   0.152  1.00  0.00     0.163 HD
ENDBRANCH  28  31
ENDBRANCH  24  25
ENDBRANCH   2  24
TORSDOF 6
