MODEL 1
REMARK VINA RESULT:    -7.432      0.000      0.000
REMARK INTER + INTRA:          -9.229
REMARK INTER:                  -9.136
REMARK INTRA:                  -0.093
REMARK UNBOUND:                -0.494
REMARK SMILES O=C(Nc1ccc2c(c1)OC(F)(F)O2)Nc1ccc(Cl)c(C(F)(F)F)c1
REMARK SMILES IDX 20 1 16 2 21 3 26 4 17 5 19 6 18 7 22 8 23 9 24 10 25 11
REMARK SMILES IDX 15 12 2 13 1 15 3 16 4 18 9 19 5 20 8 21 6 22 10 23 7 24
REMARK SMILES IDX 11 25 14 26 12 27 13 28
REMARK H PARENT 15 14 3 17
REMARK Flexibility Score: inf
ROOT
ATOM      1  Cl  UNL     1      90.914  -0.316  15.362  1.00  0.00    -0.084 Cl
ATOM      2  C   UNL     1      87.050   1.181  13.572  1.00  0.00     0.043 A 
ATOM      3  C   UNL     1      88.461  -0.666  14.227  1.00  0.00     0.076 A 
ATOM      4  C   UNL     1      87.271  -0.192  13.677  1.00  0.00     0.040 A 
ATOM      5  C   UNL     1      88.019   2.080  14.017  1.00  0.00     0.028 A 
ATOM      6  C   UNL     1      89.431   0.233  14.672  1.00  0.00     0.053 A 
ATOM      7  C   UNL     1      89.209   1.606  14.567  1.00  0.00     0.023 A 
ENDROOT
BRANCH   3   8
ATOM      8  C   UNL     1      88.660  -2.144  14.325  1.00  0.00     0.417 C 
ATOM      9  F   UNL     1      88.520  -2.607  15.599  1.00  0.00    -0.166 F 
ATOM     10  F   UNL     1      87.776  -2.862  13.573  1.00  0.00    -0.166 F 
ATOM     11  F   UNL     1      89.895  -2.555  13.916  1.00  0.00    -0.166 F 
ENDBRANCH   3   8
BRANCH   2  12
ATOM     12  N   UNL     1      85.842   1.662  13.012  1.00  0.00    -0.308 N 
ATOM     13  C   UNL     1      85.033   1.047  12.043  1.00  0.00     0.323 C 
ATOM     14  H   UNL     1      85.530   2.565  13.360  1.00  0.00     0.171 HD
ATOM     15  O   UNL     1      85.257  -0.039  11.518  1.00  0.00    -0.248 OA
ATOM     16  N   UNL     1      83.913   1.865  11.759  1.00  0.00    -0.308 N 
ATOM     17  H   UNL     1      83.858   2.740  12.273  1.00  0.00     0.171 HD
BRANCH  16  18
ATOM     18  C   UNL     1      82.868   1.630  10.863  1.00  0.00     0.046 A 
ATOM     19  C   UNL     1      81.652   1.129  11.335  1.00  0.00     0.077 A 
ATOM     20  C   UNL     1      83.049   1.901   9.496  1.00  0.00     0.030 A 
ATOM     21  C   UNL     1      80.648   0.914  10.413  1.00  0.00     0.174 A 
ATOM     22  C   UNL     1      82.016   1.674   8.583  1.00  0.00     0.053 A 
ATOM     23  O   UNL     1      79.404   0.432  10.686  1.00  0.00    -0.395 OA
ATOM     24  C   UNL     1      80.826   1.179   9.073  1.00  0.00     0.172 A 
ATOM     25  C   UNL     1      78.835   0.428   9.370  1.00  0.00     0.586 C 
ATOM     26  O   UNL     1      79.715   0.897   8.337  1.00  0.00    -0.395 OA
ATOM     27  F   UNL     1      77.722   1.204   9.376  1.00  0.00    -0.125 F 
ATOM     28  F   UNL     1      78.449  -0.837   9.068  1.00  0.00    -0.125 F 
ENDBRANCH  16  18
ENDBRANCH   2  12
TORSDOF 3
ENDMDL
MODEL 2
REMARK VINA RESULT:    -7.290      1.863      2.290
REMARK INTER + INTRA:          -9.063
REMARK INTER:                  -8.616
REMARK INTRA:                  -0.446
REMARK UNBOUND:                -0.494
REMARK SMILES O=C(Nc1ccc2c(c1)OC(F)(F)O2)Nc1ccc(Cl)c(C(F)(F)F)c1
REMARK SMILES IDX 20 1 16 2 21 3 26 4 17 5 19 6 18 7 22 8 23 9 24 10 25 11
REMARK SMILES IDX 15 12 2 13 1 15 3 16 4 18 9 19 5 20 8 21 6 22 10 23 7 24
REMARK SMILES IDX 11 25 14 26 12 27 13 28
REMARK H PARENT 15 14 3 17
REMARK Flexibility Score: inf
ROOT
ATOM      1  Cl  UNL     1      89.744  -3.610  13.047  1.00  0.00    -0.084 Cl
ATOM      2  C   UNL     1      86.537  -0.705  11.760  1.00  0.00     0.043 A 
ATOM      3  C   UNL     1      87.872  -1.686  13.518  1.00  0.00     0.076 A 
ATOM      4  C   UNL     1      86.884  -0.791  13.108  1.00  0.00     0.040 A 
ATOM      5  C   UNL     1      87.177  -1.513  10.822  1.00  0.00     0.028 A 
ATOM      6  C   UNL     1      88.513  -2.494  12.579  1.00  0.00     0.053 A 
ATOM      7  C   UNL     1      88.166  -2.408  11.231  1.00  0.00     0.023 A 
ENDROOT
BRANCH   3   8
ATOM      8  C   UNL     1      88.217  -1.747  14.970  1.00  0.00     0.417 C 
ATOM      9  F   UNL     1      87.338  -1.050  15.746  1.00  0.00    -0.166 F 
ATOM     10  F   UNL     1      88.229  -3.015  15.475  1.00  0.00    -0.166 F 
ATOM     11  F   UNL     1      89.449  -1.235  15.259  1.00  0.00    -0.166 F 
ENDBRANCH   3   8
BRANCH   2  12
ATOM     12  N   UNL     1      85.533   0.202  11.345  1.00  0.00    -0.308 N 
ATOM     13  C   UNL     1      84.270  -0.094  10.806  1.00  0.00     0.323 C 
ATOM     14  H   UNL     1      85.762   1.186  11.456  1.00  0.00     0.171 HD
ATOM     15  O   UNL     1      83.831  -1.222  10.606  1.00  0.00    -0.248 OA
ATOM     16  N   UNL     1      83.572   1.105  10.524  1.00  0.00    -0.308 N 
ATOM     17  H   UNL     1      84.063   1.969  10.743  1.00  0.00     0.171 HD
BRANCH  16  18
ATOM     18  C   UNL     1      82.294   1.263   9.985  1.00  0.00     0.046 A 
ATOM     19  C   UNL     1      81.172   0.991  10.771  1.00  0.00     0.077 A 
ATOM     20  C   UNL     1      82.149   1.694   8.654  1.00  0.00     0.030 A 
ATOM     21  C   UNL     1      79.930   1.162  10.195  1.00  0.00     0.174 A 
ATOM     22  C   UNL     1      80.880   1.859   8.095  1.00  0.00     0.053 A 
ATOM     23  O   UNL     1      78.732   0.947  10.804  1.00  0.00    -0.395 OA
ATOM     24  C   UNL     1      79.788   1.584   8.892  1.00  0.00     0.172 A 
ATOM     25  C   UNL     1      77.836   1.281   9.735  1.00  0.00     0.586 C 
ATOM     26  O   UNL     1      78.481   1.688   8.519  1.00  0.00    -0.395 OA
ATOM     27  F   UNL     1      77.022   2.284  10.149  1.00  0.00    -0.125 F 
ATOM     28  F   UNL     1      77.055   0.204   9.471  1.00  0.00    -0.125 F 
ENDBRANCH  16  18
ENDBRANCH   2  12
TORSDOF 3
ENDMDL
MODEL 3
REMARK VINA RESULT:    -7.210      3.844      9.753
REMARK INTER + INTRA:          -8.969
REMARK INTER:                  -8.577
REMARK INTRA:                  -0.392
REMARK UNBOUND:                -0.494
REMARK SMILES O=C(Nc1ccc2c(c1)OC(F)(F)O2)Nc1ccc(Cl)c(C(F)(F)F)c1
REMARK SMILES IDX 20 1 16 2 21 3 26 4 17 5 19 6 18 7 22 8 23 9 24 10 25 11
REMARK SMILES IDX 15 12 2 13 1 15 3 16 4 18 9 19 5 20 8 21 6 22 10 23 7 24
REMARK SMILES IDX 11 25 14 26 12 27 13 28
REMARK H PARENT 15 14 3 17
REMARK Flexibility Score: inf
ROOT
ATOM      1  Cl  UNL     1      76.778   1.386   8.704  1.00  0.00    -0.084 Cl
ATOM      2  C   UNL     1      81.094   1.246  10.020  1.00  0.00     0.043 A 
ATOM      3  C   UNL     1      79.456   1.685   8.299  1.00  0.00     0.076 A 
ATOM      4  C   UNL     1      80.786   1.638   8.717  1.00  0.00     0.040 A 
ATOM      5  C   UNL     1      80.073   0.899  10.904  1.00  0.00     0.028 A 
ATOM      6  C   UNL     1      78.435   1.338   9.183  1.00  0.00     0.053 A 
ATOM      7  C   UNL     1      78.743   0.945  10.486  1.00  0.00     0.023 A 
ENDROOT
BRANCH   3   8
ATOM      8  C   UNL     1      79.168   2.112   6.897  1.00  0.00     0.417 C 
ATOM      9  F   UNL     1      80.302   2.324   6.171  1.00  0.00    -0.166 F 
ATOM     10  F   UNL     1      78.441   1.200   6.188  1.00  0.00    -0.166 F 
ATOM     11  F   UNL     1      78.457   3.275   6.819  1.00  0.00    -0.166 F 
ENDBRANCH   3   8
BRANCH   2  12
ATOM     12  N   UNL     1      82.443   1.198  10.443  1.00  0.00    -0.308 N 
ATOM     13  C   UNL     1      83.133   0.114  11.013  1.00  0.00     0.323 C 
ATOM     14  H   UNL     1      82.972   2.057  10.315  1.00  0.00     0.171 HD
ATOM     15  O   UNL     1      82.654  -0.993  11.236  1.00  0.00    -0.248 OA
ATOM     16  N   UNL     1      84.470   0.486  11.292  1.00  0.00    -0.308 N 
ATOM     17  H   UNL     1      84.727   1.440  11.052  1.00  0.00     0.171 HD
BRANCH  16  18
ATOM     18  C   UNL     1      85.489  -0.285  11.856  1.00  0.00     0.046 A 
ATOM     19  C   UNL     1      85.890  -0.044  13.172  1.00  0.00     0.077 A 
ATOM     20  C   UNL     1      86.101  -1.295  11.094  1.00  0.00     0.030 A 
ATOM     21  C   UNL     1      86.900  -0.831  13.687  1.00  0.00     0.174 A 
ATOM     22  C   UNL     1      87.122  -2.077  11.639  1.00  0.00     0.053 A 
ATOM     23  O   UNL     1      87.420  -0.742  14.943  1.00  0.00    -0.395 OA
ATOM     24  C   UNL     1      87.500  -1.820  12.940  1.00  0.00     0.172 A 
ATOM     25  C   UNL     1      88.404  -1.783  14.888  1.00  0.00     0.586 C 
ATOM     26  O   UNL     1      88.471  -2.478  13.634  1.00  0.00    -0.395 OA
ATOM     27  F   UNL     1      88.139  -2.683  15.868  1.00  0.00    -0.125 F 
ATOM     28  F   UNL     1      89.621  -1.242  15.149  1.00  0.00    -0.125 F 
ENDBRANCH  16  18
ENDBRANCH   2  12
TORSDOF 3
ENDMDL
MODEL 4
REMARK VINA RESULT:    -7.181      6.439      9.624
REMARK INTER + INTRA:          -8.934
REMARK INTER:                  -8.385
REMARK INTRA:                  -0.550
REMARK UNBOUND:                -0.494
REMARK SMILES O=C(Nc1ccc2c(c1)OC(F)(F)O2)Nc1ccc(Cl)c(C(F)(F)F)c1
REMARK SMILES IDX 20 1 16 2 21 3 26 4 17 5 19 6 18 7 22 8 23 9 24 10 25 11
REMARK SMILES IDX 15 12 2 13 1 15 3 16 4 18 9 19 5 20 8 21 6 22 10 23 7 24
REMARK SMILES IDX 11 25 14 26 12 27 13 28
REMARK H PARENT 15 14 3 17
REMARK Flexibility Score: inf
ROOT
ATOM      1  Cl  UNL     1      83.727  12.000  11.383  1.00  0.00    -0.084 Cl
ATOM      2  C   UNL     1      84.872   7.663  10.875  1.00  0.00     0.043 A 
ATOM      3  C   UNL     1      83.390   9.329  11.804  1.00  0.00     0.076 A 
ATOM      4  C   UNL     1      83.753   7.992  11.639  1.00  0.00     0.040 A 
ATOM      5  C   UNL     1      85.629   8.670  10.276  1.00  0.00     0.028 A 
ATOM      6  C   UNL     1      84.147  10.336  11.205  1.00  0.00     0.053 A 
ATOM      7  C   UNL     1      85.266  10.007  10.441  1.00  0.00     0.023 A 
ENDROOT
BRANCH   3   8
ATOM      8  C   UNL     1      82.183   9.640  12.628  1.00  0.00     0.417 C 
ATOM      9  F   UNL     1      82.491  10.313  13.773  1.00  0.00    -0.166 F 
ATOM     10  F   UNL     1      81.267  10.417  11.980  1.00  0.00    -0.166 F 
ATOM     11  F   UNL     1      81.495   8.530  13.025  1.00  0.00    -0.166 F 
ENDBRANCH   3   8
BRANCH   2  12
ATOM     12  N   UNL     1      85.242   6.307  10.709  1.00  0.00    -0.308 N 
ATOM     13  C   UNL     1      85.921   5.479  11.617  1.00  0.00     0.323 C 
ATOM     14  H   UNL     1      84.978   5.889   9.820  1.00  0.00     0.171 HD
ATOM     15  O   UNL     1      86.310   5.816  12.730  1.00  0.00    -0.248 OA
ATOM     16  N   UNL     1      86.092   4.189  11.059  1.00  0.00    -0.308 N 
ATOM     17  H   UNL     1      85.716   4.054  10.124  1.00  0.00     0.171 HD
BRANCH  16  18
ATOM     18  C   UNL     1      86.711   3.071  11.622  1.00  0.00     0.046 A 
ATOM     19  C   UNL     1      85.969   2.201  12.425  1.00  0.00     0.077 A 
ATOM     20  C   UNL     1      88.074   2.832  11.376  1.00  0.00     0.030 A 
ATOM     21  C   UNL     1      86.623   1.110  12.960  1.00  0.00     0.174 A 
ATOM     22  C   UNL     1      88.713   1.720  11.930  1.00  0.00     0.053 A 
ATOM     23  O   UNL     1      86.067   0.160  13.761  1.00  0.00    -0.395 OA
ATOM     24  C   UNL     1      87.959   0.876  12.718  1.00  0.00     0.172 A 
ATOM     25  C   UNL     1      87.204  -0.684  13.988  1.00  0.00     0.586 C 
ATOM     26  O   UNL     1      88.408  -0.251  13.338  1.00  0.00    -0.395 OA
ATOM     27  F   UNL     1      86.907  -1.936  13.560  1.00  0.00    -0.125 F 
ATOM     28  F   UNL     1      87.433  -0.752  15.324  1.00  0.00    -0.125 F 
ENDBRANCH  16  18
ENDBRANCH   2  12
TORSDOF 3
ENDMDL
MODEL 5
REMARK VINA RESULT:    -7.179      3.741      9.644
REMARK INTER + INTRA:          -8.932
REMARK INTER:                  -8.628
REMARK INTRA:                  -0.304
REMARK UNBOUND:                -0.494
REMARK SMILES O=C(Nc1ccc2c(c1)OC(F)(F)O2)Nc1ccc(Cl)c(C(F)(F)F)c1
REMARK SMILES IDX 20 1 16 2 21 3 26 4 17 5 19 6 18 7 22 8 23 9 24 10 25 11
REMARK SMILES IDX 15 12 2 13 1 15 3 16 4 18 9 19 5 20 8 21 6 22 10 23 7 24
REMARK SMILES IDX 11 25 14 26 12 27 13 28
REMARK H PARENT 15 14 3 17
REMARK Flexibility Score: inf
ROOT
ATOM      1  Cl  UNL     1      77.829   1.227   6.802  1.00  0.00    -0.084 Cl
ATOM      2  C   UNL     1      81.581   1.149   9.312  1.00  0.00     0.043 A 
ATOM      3  C   UNL     1      79.175   1.309   9.170  1.00  0.00     0.076 A 
ATOM      4  C   UNL     1      80.341   1.283   9.935  1.00  0.00     0.040 A 
ATOM      5  C   UNL     1      81.656   1.043   7.923  1.00  0.00     0.028 A 
ATOM      6  C   UNL     1      79.250   1.203   7.781  1.00  0.00     0.053 A 
ATOM      7  C   UNL     1      80.490   1.069   7.158  1.00  0.00     0.023 A 
ENDROOT
BRANCH   3   8
ATOM      8  C   UNL     1      77.866   1.451   9.876  1.00  0.00     0.417 C 
ATOM      9  F   UNL     1      77.986   1.333  11.229  1.00  0.00    -0.166 F 
ATOM     10  F   UNL     1      77.260   2.655   9.664  1.00  0.00    -0.166 F 
ATOM     11  F   UNL     1      76.944   0.516   9.505  1.00  0.00    -0.166 F 
ENDBRANCH   3   8
BRANCH   2  12
ATOM     12  N   UNL     1      82.764   1.124  10.088  1.00  0.00    -0.308 N 
ATOM     13  C   UNL     1      83.512   0.005  10.488  1.00  0.00     0.323 C 
ATOM     14  H   UNL     1      83.108   2.033  10.388  1.00  0.00     0.171 HD
ATOM     15  O   UNL     1      83.245  -1.161  10.214  1.00  0.00    -0.248 OA
ATOM     16  N   UNL     1      84.628   0.418  11.255  1.00  0.00    -0.308 N 
ATOM     17  H   UNL     1      84.722   1.420  11.401  1.00  0.00     0.171 HD
BRANCH  16  18
ATOM     18  C   UNL     1      85.621  -0.368  11.843  1.00  0.00     0.046 A 
ATOM     19  C   UNL     1      85.990  -0.137  13.170  1.00  0.00     0.077 A 
ATOM     20  C   UNL     1      86.240  -1.383  11.093  1.00  0.00     0.030 A 
ATOM     21  C   UNL     1      86.976  -0.939  13.708  1.00  0.00     0.174 A 
ATOM     22  C   UNL     1      87.235  -2.181  11.661  1.00  0.00     0.053 A 
ATOM     23  O   UNL     1      87.463  -0.862  14.977  1.00  0.00    -0.395 OA
ATOM     24  C   UNL     1      87.582  -1.934  12.973  1.00  0.00     0.172 A 
ATOM     25  C   UNL     1      88.435  -1.916  14.945  1.00  0.00     0.586 C 
ATOM     26  O   UNL     1      88.526  -2.607  13.690  1.00  0.00    -0.395 OA
ATOM     27  F   UNL     1      88.132  -2.816  15.913  1.00  0.00    -0.125 F 
ATOM     28  F   UNL     1      89.652  -1.393  15.240  1.00  0.00    -0.125 F 
ENDBRANCH  16  18
ENDBRANCH   2  12
TORSDOF 3
ENDMDL
MODEL 6
REMARK VINA RESULT:    -7.178      5.698      9.320
REMARK INTER + INTRA:          -8.931
REMARK INTER:                  -8.622
REMARK INTRA:                  -0.309
REMARK UNBOUND:                -0.494
REMARK SMILES O=C(Nc1ccc2c(c1)OC(F)(F)O2)Nc1ccc(Cl)c(C(F)(F)F)c1
REMARK SMILES IDX 20 1 16 2 21 3 26 4 17 5 19 6 18 7 22 8 23 9 24 10 25 11
REMARK SMILES IDX 15 12 2 13 1 15 3 16 4 18 9 19 5 20 8 21 6 22 10 23 7 24
REMARK SMILES IDX 11 25 14 26 12 27 13 28
REMARK H PARENT 15 14 3 17
REMARK Flexibility Score: inf
ROOT
ATOM      1  Cl  UNL     1      85.066  10.435  10.452  1.00  0.00    -0.084 Cl
ATOM      2  C   UNL     1      85.905   6.556  12.604  1.00  0.00     0.043 A 
ATOM      3  C   UNL     1      84.352   8.302  11.990  1.00  0.00     0.076 A 
ATOM      4  C   UNL     1      84.623   7.103  12.650  1.00  0.00     0.040 A 
ATOM      5  C   UNL     1      86.916   7.207  11.897  1.00  0.00     0.028 A 
ATOM      6  C   UNL     1      85.363   8.953  11.284  1.00  0.00     0.053 A 
ATOM      7  C   UNL     1      86.645   8.405  11.237  1.00  0.00     0.023 A 
ENDROOT
BRANCH   3   8
ATOM      8  C   UNL     1      82.966   8.854  12.062  1.00  0.00     0.417 C 
ATOM      9  F   UNL     1      82.426   9.074  10.829  1.00  0.00    -0.166 F 
ATOM     10  F   UNL     1      82.086   8.036  12.709  1.00  0.00    -0.166 F 
ATOM     11  F   UNL     1      82.890  10.050  12.716  1.00  0.00    -0.166 F 
ENDBRANCH   3   8
BRANCH   2  12
ATOM     12  N   UNL     1      86.180   5.341  13.274  1.00  0.00    -0.308 N 
ATOM     13  C   UNL     1      86.331   4.060  12.717  1.00  0.00     0.323 C 
ATOM     14  H   UNL     1      86.279   5.413  14.284  1.00  0.00     0.171 HD
ATOM     15  O   UNL     1      86.246   3.792  11.523  1.00  0.00    -0.248 OA
ATOM     16  N   UNL     1      86.600   3.117  13.739  1.00  0.00    -0.308 N 
ATOM     17  H   UNL     1      86.642   3.486  14.686  1.00  0.00     0.171 HD
BRANCH  16  18
ATOM     18  C   UNL     1      86.815   1.743  13.621  1.00  0.00     0.046 A 
ATOM     19  C   UNL     1      87.881   1.150  14.301  1.00  0.00     0.077 A 
ATOM     20  C   UNL     1      85.958   0.970  12.819  1.00  0.00     0.030 A 
ATOM     21  C   UNL     1      88.055  -0.211  14.155  1.00  0.00     0.174 A 
ATOM     22  C   UNL     1      86.156  -0.406  12.687  1.00  0.00     0.053 A 
ATOM     23  O   UNL     1      89.033  -0.958  14.738  1.00  0.00    -0.395 OA
ATOM     24  C   UNL     1      87.215  -0.969  13.369  1.00  0.00     0.172 A 
ATOM     25  C   UNL     1      88.705  -2.257  14.226  1.00  0.00     0.586 C 
ATOM     26  O   UNL     1      87.560  -2.287  13.361  1.00  0.00    -0.395 OA
ATOM     27  F   UNL     1      88.480  -3.091  15.271  1.00  0.00    -0.125 F 
ATOM     28  F   UNL     1      89.776  -2.736  13.544  1.00  0.00    -0.125 F 
ENDBRANCH  16  18
ENDBRANCH   2  12
TORSDOF 3
ENDMDL
MODEL 7
REMARK VINA RESULT:    -7.172      3.917      9.484
REMARK INTER + INTRA:          -8.924
REMARK INTER:                  -8.391
REMARK INTRA:                  -0.532
REMARK UNBOUND:                -0.494
REMARK SMILES O=C(Nc1ccc2c(c1)OC(F)(F)O2)Nc1ccc(Cl)c(C(F)(F)F)c1
REMARK SMILES IDX 20 1 16 2 21 3 26 4 17 5 19 6 18 7 22 8 23 9 24 10 25 11
REMARK SMILES IDX 15 12 2 13 1 15 3 16 4 18 9 19 5 20 8 21 6 22 10 23 7 24
REMARK SMILES IDX 11 25 14 26 12 27 13 28
REMARK H PARENT 15 14 3 17
REMARK Flexibility Score: inf
ROOT
ATOM      1  Cl  UNL     1      79.920   0.431   8.100  1.00  0.00    -0.084 Cl
ATOM      2  C   UNL     1      82.986  -0.008  11.385  1.00  0.00     0.043 A 
ATOM      3  C   UNL     1      81.560  -1.023   9.719  1.00  0.00     0.076 A 
ATOM      4  C   UNL     1      82.509  -1.146  10.735  1.00  0.00     0.040 A 
ATOM      5  C   UNL     1      82.515   1.253  11.020  1.00  0.00     0.028 A 
ATOM      6  C   UNL     1      81.090   0.238   9.354  1.00  0.00     0.053 A 
ATOM      7  C   UNL     1      81.567   1.376  10.004  1.00  0.00     0.023 A 
ENDROOT
BRANCH   3   8
ATOM      8  C   UNL     1      81.076  -2.266   9.046  1.00  0.00     0.417 C 
ATOM      9  F   UNL     1      81.742  -3.380   9.463  1.00  0.00    -0.166 F 
ATOM     10  F   UNL     1      79.754  -2.524   9.264  1.00  0.00    -0.166 F 
ATOM     11  F   UNL     1      81.217  -2.239   7.688  1.00  0.00    -0.166 F 
ENDBRANCH   3   8
BRANCH   2  12
ATOM     12  N   UNL     1      83.946  -0.134  12.416  1.00  0.00    -0.308 N 
ATOM     13  C   UNL     1      85.330  -0.335  12.289  1.00  0.00     0.323 C 
ATOM     14  H   UNL     1      83.580  -0.068  13.363  1.00  0.00     0.171 HD
ATOM     15  O   UNL     1      85.938  -0.434  11.228  1.00  0.00    -0.248 OA
ATOM     16  N   UNL     1      85.929  -0.404  13.571  1.00  0.00    -0.308 N 
ATOM     17  H   UNL     1      85.298  -0.304  14.363  1.00  0.00     0.171 HD
BRANCH  16  18
ATOM     18  C   UNL     1      87.273  -0.593  13.896  1.00  0.00     0.046 A 
ATOM     19  C   UNL     1      88.024   0.480  14.380  1.00  0.00     0.077 A 
ATOM     20  C   UNL     1      87.858  -1.861  13.731  1.00  0.00     0.030 A 
ATOM     21  C   UNL     1      89.349   0.246  14.689  1.00  0.00     0.174 A 
ATOM     22  C   UNL     1      89.201  -2.071  14.050  1.00  0.00     0.053 A 
ATOM     23  O   UNL     1      90.231   1.165  15.170  1.00  0.00    -0.395 OA
ATOM     24  C   UNL     1      89.922  -0.996  14.528  1.00  0.00     0.172 A 
ATOM     25  C   UNL     1      91.408   0.355  15.287  1.00  0.00     0.586 C 
ATOM     26  O   UNL     1      91.236  -1.013  14.889  1.00  0.00    -0.395 OA
ATOM     27  F   UNL     1      91.825   0.381  16.578  1.00  0.00    -0.125 F 
ATOM     28  F   UNL     1      92.390   0.906  14.530  1.00  0.00    -0.125 F 
ENDBRANCH  16  18
ENDBRANCH   2  12
TORSDOF 3
ENDMDL
MODEL 8
REMARK VINA RESULT:    -7.044      3.951      9.636
REMARK INTER + INTRA:          -8.773
REMARK INTER:                  -8.433
REMARK INTRA:                  -0.340
REMARK UNBOUND:                -0.494
REMARK SMILES O=C(Nc1ccc2c(c1)OC(F)(F)O2)Nc1ccc(Cl)c(C(F)(F)F)c1
REMARK SMILES IDX 20 1 16 2 21 3 26 4 17 5 19 6 18 7 22 8 23 9 24 10 25 11
REMARK SMILES IDX 15 12 2 13 1 15 3 16 4 18 9 19 5 20 8 21 6 22 10 23 7 24
REMARK SMILES IDX 11 25 14 26 12 27 13 28
REMARK H PARENT 15 14 3 17
REMARK Flexibility Score: inf
ROOT
ATOM      1  Cl  UNL     1      79.718   1.392   7.783  1.00  0.00    -0.084 Cl
ATOM      2  C   UNL     1      82.975   1.498  10.908  1.00  0.00     0.043 A 
ATOM      3  C   UNL     1      82.241   1.950   8.651  1.00  0.00     0.076 A 
ATOM      4  C   UNL     1      83.239   1.979   9.625  1.00  0.00     0.040 A 
ATOM      5  C   UNL     1      81.714   0.989  11.216  1.00  0.00     0.028 A 
ATOM      6  C   UNL     1      80.979   1.441   8.960  1.00  0.00     0.053 A 
ATOM      7  C   UNL     1      80.716   0.960  10.242  1.00  0.00     0.023 A 
ENDROOT
BRANCH   3   8
ATOM      8  C   UNL     1      82.562   2.476   7.290  1.00  0.00     0.417 C 
ATOM      9  F   UNL     1      82.697   1.484   6.365  1.00  0.00    -0.166 F 
ATOM     10  F   UNL     1      81.608   3.316   6.792  1.00  0.00    -0.166 F 
ATOM     11  F   UNL     1      83.726   3.187   7.242  1.00  0.00    -0.166 F 
ENDBRANCH   3   8
BRANCH   2  12
ATOM     12  N   UNL     1      83.988   1.526  11.895  1.00  0.00    -0.308 N 
ATOM     13  C   UNL     1      85.056   0.630  12.063  1.00  0.00     0.323 C 
ATOM     14  H   UNL     1      83.927   2.293  12.560  1.00  0.00     0.171 HD
ATOM     15  O   UNL     1      85.282  -0.345  11.355  1.00  0.00    -0.248 OA
ATOM     16  N   UNL     1      85.842   1.018  13.175  1.00  0.00    -0.308 N 
ATOM     17  H   UNL     1      85.534   1.852  13.670  1.00  0.00     0.171 HD
BRANCH  16  18
ATOM     18  C   UNL     1      86.989   0.409  13.687  1.00  0.00     0.046 A 
ATOM     19  C   UNL     1      88.159   1.156  13.841  1.00  0.00     0.077 A 
ATOM     20  C   UNL     1      86.955  -0.951  14.042  1.00  0.00     0.030 A 
ATOM     21  C   UNL     1      89.268   0.511  14.351  1.00  0.00     0.174 A 
ATOM     22  C   UNL     1      88.091  -1.580  14.556  1.00  0.00     0.053 A 
ATOM     23  O   UNL     1      90.488   1.074  14.569  1.00  0.00    -0.395 OA
ATOM     24  C   UNL     1      89.234  -0.821  14.699  1.00  0.00     0.172 A 
ATOM     25  C   UNL     1      91.203  -0.056  15.089  1.00  0.00     0.586 C 
ATOM     26  O   UNL     1      90.430  -1.262  15.180  1.00  0.00    -0.395 OA
ATOM     27  F   UNL     1      91.667   0.255  16.325  1.00  0.00    -0.125 F 
ATOM     28  F   UNL     1      92.279  -0.290  14.295  1.00  0.00    -0.125 F 
ENDBRANCH  16  18
ENDBRANCH   2  12
TORSDOF 3
ENDMDL
MODEL 9
REMARK VINA RESULT:    -7.038      3.559      9.608
REMARK INTER + INTRA:          -8.766
REMARK INTER:                  -8.429
REMARK INTRA:                  -0.338
REMARK UNBOUND:                -0.494
REMARK SMILES O=C(Nc1ccc2c(c1)OC(F)(F)O2)Nc1ccc(Cl)c(C(F)(F)F)c1
REMARK SMILES IDX 20 1 16 2 21 3 26 4 17 5 19 6 18 7 22 8 23 9 24 10 25 11
REMARK SMILES IDX 15 12 2 13 1 15 3 16 4 18 9 19 5 20 8 21 6 22 10 23 7 24
REMARK SMILES IDX 11 25 14 26 12 27 13 28
REMARK H PARENT 15 14 3 17
REMARK Flexibility Score: inf
ROOT
ATOM      1  Cl  UNL     1      80.116   1.691   7.037  1.00  0.00    -0.084 Cl
ATOM      2  C   UNL     1      83.070   1.624  10.451  1.00  0.00     0.043 A 
ATOM      3  C   UNL     1      80.815   1.309   9.643  1.00  0.00     0.076 A 
ATOM      4  C   UNL     1      81.737   1.291  10.690  1.00  0.00     0.040 A 
ATOM      5  C   UNL     1      83.481   1.976   9.166  1.00  0.00     0.028 A 
ATOM      6  C   UNL     1      81.227   1.661   8.358  1.00  0.00     0.053 A 
ATOM      7  C   UNL     1      82.560   1.994   8.119  1.00  0.00     0.023 A 
ENDROOT
BRANCH   3   8
ATOM      8  C   UNL     1      79.397   0.943   9.940  1.00  0.00     0.417 C 
ATOM      9  F   UNL     1      79.123   0.953  11.275  1.00  0.00    -0.166 F 
ATOM     10  F   UNL     1      78.487   1.786   9.371  1.00  0.00    -0.166 F 
ATOM     11  F   UNL     1      79.054  -0.303   9.502  1.00  0.00    -0.166 F 
ENDBRANCH   3   8
BRANCH   2  12
ATOM     12  N   UNL     1      84.005   1.607  11.513  1.00  0.00    -0.308 N 
ATOM     13  C   UNL     1      85.065   0.709  11.718  1.00  0.00     0.323 C 
ATOM     14  H   UNL     1      83.887   2.339  12.209  1.00  0.00     0.171 HD
ATOM     15  O   UNL     1      85.352  -0.229  10.981  1.00  0.00    -0.248 OA
ATOM     16  N   UNL     1      85.761   1.045  12.904  1.00  0.00    -0.308 N 
ATOM     17  H   UNL     1      85.408   1.851  13.414  1.00  0.00     0.171 HD
BRANCH  16  18
ATOM     18  C   UNL     1      86.871   0.416  13.471  1.00  0.00     0.046 A 
ATOM     19  C   UNL     1      88.070   1.119  13.605  1.00  0.00     0.077 A 
ATOM     20  C   UNL     1      86.770  -0.919  13.902  1.00  0.00     0.030 A 
ATOM     21  C   UNL     1      89.140   0.456  14.171  1.00  0.00     0.174 A 
ATOM     22  C   UNL     1      87.868  -1.567  14.472  1.00  0.00     0.053 A 
ATOM     23  O   UNL     1      90.381   0.976  14.380  1.00  0.00    -0.395 OA
ATOM     24  C   UNL     1      89.041  -0.851  14.593  1.00  0.00     0.172 A 
ATOM     25  C   UNL     1      91.036  -0.152  14.976  1.00  0.00     0.586 C 
ATOM     26  O   UNL     1      90.208  -1.316  15.121  1.00  0.00    -0.395 OA
ATOM     27  F   UNL     1      91.493   0.209  16.201  1.00  0.00    -0.125 F 
ATOM     28  F   UNL     1      92.113  -0.478  14.218  1.00  0.00    -0.125 F 
ENDBRANCH  16  18
ENDBRANCH   2  12
TORSDOF 3
ENDMDL
MODEL 10
REMARK VINA RESULT:    -6.890      2.149      2.730
REMARK INTER + INTRA:          -8.592
REMARK INTER:                  -8.118
REMARK INTRA:                  -0.474
REMARK UNBOUND:                -0.494
REMARK SMILES O=C(Nc1ccc2c(c1)OC(F)(F)O2)Nc1ccc(Cl)c(C(F)(F)F)c1
REMARK SMILES IDX 20 1 16 2 21 3 26 4 17 5 19 6 18 7 22 8 23 9 24 10 25 11
REMARK SMILES IDX 15 12 2 13 1 15 3 16 4 18 9 19 5 20 8 21 6 22 10 23 7 24
REMARK SMILES IDX 11 25 14 26 12 27 13 28
REMARK H PARENT 15 14 3 17
REMARK Flexibility Score: inf
ROOT
ATOM      1  Cl  UNL     1      92.178  -2.769  14.081  1.00  0.00    -0.084 Cl
ATOM      2  C   UNL     1      87.909  -1.406  13.531  1.00  0.00     0.043 A 
ATOM      3  C   UNL     1      90.164  -0.941  14.261  1.00  0.00     0.076 A 
ATOM      4  C   UNL     1      88.843  -0.531  14.085  1.00  0.00     0.040 A 
ATOM      5  C   UNL     1      88.296  -2.691  13.152  1.00  0.00     0.028 A 
ATOM      6  C   UNL     1      90.551  -2.227  13.883  1.00  0.00     0.053 A 
ATOM      7  C   UNL     1      89.617  -3.102  13.328  1.00  0.00     0.023 A 
ENDROOT
BRANCH   3   8
ATOM      8  C   UNL     1      91.135   0.026  14.856  1.00  0.00     0.417 C 
ATOM      9  F   UNL     1      91.581  -0.369  16.082  1.00  0.00    -0.166 F 
ATOM     10  F   UNL     1      92.255   0.210  14.098  1.00  0.00    -0.166 F 
ATOM     11  F   UNL     1      90.616   1.276  15.037  1.00  0.00    -0.166 F 
ENDBRANCH   3   8
BRANCH   2  12
ATOM     12  N   UNL     1      86.568  -0.990  13.354  1.00  0.00    -0.308 N 
ATOM     13  C   UNL     1      85.952  -0.534  12.177  1.00  0.00     0.323 C 
ATOM     14  H   UNL     1      85.986  -1.030  14.187  1.00  0.00     0.171 HD
ATOM     15  O   UNL     1      86.501  -0.425  11.086  1.00  0.00    -0.248 OA
ATOM     16  N   UNL     1      84.595  -0.219  12.432  1.00  0.00    -0.308 N 
ATOM     17  H   UNL     1      84.277  -0.361  13.387  1.00  0.00     0.171 HD
BRANCH  16  18
ATOM     18  C   UNL     1      83.631   0.262  11.545  1.00  0.00     0.046 A 
ATOM     19  C   UNL     1      82.509  -0.517  11.253  1.00  0.00     0.077 A 
ATOM     20  C   UNL     1      83.799   1.527  10.953  1.00  0.00     0.030 A 
ATOM     21  C   UNL     1      81.582   0.001  10.371  1.00  0.00     0.174 A 
ATOM     22  C   UNL     1      82.846   2.027  10.063  1.00  0.00     0.053 A 
ATOM     23  O   UNL     1      80.434  -0.611   9.970  1.00  0.00    -0.395 OA
ATOM     24  C   UNL     1      81.747   1.240   9.792  1.00  0.00     0.172 A 
ATOM     25  C   UNL     1      79.910   0.384   9.081  1.00  0.00     0.586 C 
ATOM     26  O   UNL     1      80.721   1.561   8.954  1.00  0.00    -0.395 OA
ATOM     27  F   UNL     1      78.679   0.752   9.518  1.00  0.00    -0.125 F 
ATOM     28  F   UNL     1      79.757  -0.170   7.852  1.00  0.00    -0.125 F 
ENDBRANCH  16  18
ENDBRANCH   2  12
TORSDOF 3
ENDMDL
MODEL 11
REMARK VINA RESULT:    -6.841      2.500      3.060
REMARK INTER + INTRA:          -8.534
REMARK INTER:                  -7.965
REMARK INTRA:                  -0.569
REMARK UNBOUND:                -0.494
REMARK SMILES O=C(Nc1ccc2c(c1)OC(F)(F)O2)Nc1ccc(Cl)c(C(F)(F)F)c1
REMARK SMILES IDX 20 1 16 2 21 3 26 4 17 5 19 6 18 7 22 8 23 9 24 10 25 11
REMARK SMILES IDX 15 12 2 13 1 15 3 16 4 18 9 19 5 20 8 21 6 22 10 23 7 24
REMARK SMILES IDX 11 25 14 26 12 27 13 28
REMARK H PARENT 15 14 3 17
REMARK Flexibility Score: inf
ROOT
ATOM      1  Cl  UNL     1      91.513  -0.227  15.290  1.00  0.00    -0.084 Cl
ATOM      2  C   UNL     1      87.167  -0.308  14.070  1.00  0.00     0.043 A 
ATOM      3  C   UNL     1      89.141   0.955  14.653  1.00  0.00     0.076 A 
ATOM      4  C   UNL     1      87.799   0.917  14.276  1.00  0.00     0.040 A 
ATOM      5  C   UNL     1      87.875  -1.497  14.244  1.00  0.00     0.028 A 
ATOM      6  C   UNL     1      89.850  -0.234  14.827  1.00  0.00     0.053 A 
ATOM      7  C   UNL     1      89.218  -1.459  14.622  1.00  0.00     0.023 A 
ENDROOT
BRANCH   3   8
ATOM      8  C   UNL     1      89.784   2.288  14.861  1.00  0.00     0.417 C 
ATOM      9  F   UNL     1      88.907   3.320  14.705  1.00  0.00    -0.166 F 
ATOM     10  F   UNL     1      90.320   2.446  16.106  1.00  0.00    -0.166 F 
ATOM     11  F   UNL     1      90.808   2.539  13.994  1.00  0.00    -0.166 F 
ENDBRANCH   3   8
BRANCH   2  12
ATOM     12  N   UNL     1      85.805  -0.346  13.689  1.00  0.00    -0.308 N 
ATOM     13  C   UNL     1      85.259  -0.137  12.412  1.00  0.00     0.323 C 
ATOM     14  H   UNL     1      85.148  -0.551  14.437  1.00  0.00     0.171 HD
ATOM     15  O   UNL     1      85.901   0.118  11.399  1.00  0.00    -0.248 OA
ATOM     16  N   UNL     1      83.849  -0.266  12.462  1.00  0.00    -0.308 N 
ATOM     17  H   UNL     1      83.453  -0.480  13.374  1.00  0.00     0.171 HD
BRANCH  16  18
ATOM     18  C   UNL     1      82.925  -0.136  11.424  1.00  0.00     0.046 A 
ATOM     19  C   UNL     1      82.725  -1.199  10.539  1.00  0.00     0.077 A 
ATOM     20  C   UNL     1      82.205   1.062  11.278  1.00  0.00     0.030 A 
ATOM     21  C   UNL     1      81.802  -1.026   9.529  1.00  0.00     0.174 A 
ATOM     22  C   UNL     1      81.275   1.212  10.246  1.00  0.00     0.053 A 
ATOM     23  O   UNL     1      81.476  -1.945   8.579  1.00  0.00    -0.395 OA
ATOM     24  C   UNL     1      81.096   0.149   9.386  1.00  0.00     0.172 A 
ATOM     25  C   UNL     1      80.494  -1.210   7.836  1.00  0.00     0.586 C 
ATOM     26  O   UNL     1      80.238   0.113   8.329  1.00  0.00    -0.395 OA
ATOM     27  F   UNL     1      79.331  -1.908   7.844  1.00  0.00    -0.125 F 
ATOM     28  F   UNL     1      80.906  -1.119   6.546  1.00  0.00    -0.125 F 
ENDBRANCH  16  18
ENDBRANCH   2  12
TORSDOF 3
ENDMDL
MODEL 12
REMARK VINA RESULT:    -6.831      2.168      3.121
REMARK INTER + INTRA:          -8.523
REMARK INTER:                  -8.146
REMARK INTRA:                  -0.376
REMARK UNBOUND:                -0.494
REMARK SMILES O=C(Nc1ccc2c(c1)OC(F)(F)O2)Nc1ccc(Cl)c(C(F)(F)F)c1
REMARK SMILES IDX 20 1 16 2 21 3 26 4 17 5 19 6 18 7 22 8 23 9 24 10 25 11
REMARK SMILES IDX 15 12 2 13 1 15 3 16 4 18 9 19 5 20 8 21 6 22 10 23 7 24
REMARK SMILES IDX 11 25 14 26 12 27 13 28
REMARK H PARENT 15 14 3 17
REMARK Flexibility Score: inf
ROOT
ATOM      1  Cl  UNL     1      89.077  -3.275  13.106  1.00  0.00    -0.084 Cl
ATOM      2  C   UNL     1      85.800  -0.537  11.642  1.00  0.00     0.043 A 
ATOM      3  C   UNL     1      87.360  -1.176  13.372  1.00  0.00     0.076 A 
ATOM      4  C   UNL     1      86.347  -0.336  12.909  1.00  0.00     0.040 A 
ATOM      5  C   UNL     1      86.265  -1.578  10.838  1.00  0.00     0.028 A 
ATOM      6  C   UNL     1      87.824  -2.217  12.568  1.00  0.00     0.053 A 
ATOM      7  C   UNL     1      87.277  -2.418  11.301  1.00  0.00     0.023 A 
ENDROOT
BRANCH   3   8
ATOM      8  C   UNL     1      87.921  -0.927  14.734  1.00  0.00     0.417 C 
ATOM      9  F   UNL     1      89.254  -0.643  14.706  1.00  0.00    -0.166 F 
ATOM     10  F   UNL     1      87.335   0.122  15.381  1.00  0.00    -0.166 F 
ATOM     11  F   UNL     1      87.788  -1.990  15.580  1.00  0.00    -0.166 F 
ENDBRANCH   3   8
BRANCH   2  12
ATOM     12  N   UNL     1      84.773   0.315  11.172  1.00  0.00    -0.308 N 
ATOM     13  C   UNL     1      83.469  -0.036  10.784  1.00  0.00     0.323 C 
ATOM     14  H   UNL     1      85.016   1.300  11.112  1.00  0.00     0.171 HD
ATOM     15  O   UNL     1      83.007  -1.172  10.796  1.00  0.00    -0.248 OA
ATOM     16  N   UNL     1      82.758   1.120  10.378  1.00  0.00    -0.308 N 
ATOM     17  H   UNL     1      83.271   1.997  10.422  1.00  0.00     0.171 HD
BRANCH  16  18
ATOM     18  C   UNL     1      81.443   1.218   9.922  1.00  0.00     0.046 A 
ATOM     19  C   UNL     1      81.194   1.636   8.613  1.00  0.00     0.077 A 
ATOM     20  C   UNL     1      80.381   0.895  10.785  1.00  0.00     0.030 A 
ATOM     21  C   UNL     1      79.878   1.718   8.206  1.00  0.00     0.174 A 
ATOM     22  C   UNL     1      79.057   0.987  10.349  1.00  0.00     0.053 A 
ATOM     23  O   UNL     1      79.446   2.104   6.974  1.00  0.00    -0.395 OA
ATOM     24  C   UNL     1      78.837   1.402   9.051  1.00  0.00     0.172 A 
ATOM     25  C   UNL     1      78.027   1.993   7.152  1.00  0.00     0.586 C 
ATOM     26  O   UNL     1      77.621   1.549   8.456  1.00  0.00    -0.395 OA
ATOM     27  F   UNL     1      77.541   1.125   6.229  1.00  0.00    -0.125 F 
ATOM     28  F   UNL     1      77.464   3.203   6.912  1.00  0.00    -0.125 F 
ENDBRANCH  16  18
ENDBRANCH   2  12
TORSDOF 3
ENDMDL
MODEL 13
REMARK VINA RESULT:    -6.725      3.561      4.441
REMARK INTER + INTRA:          -8.399
REMARK INTER:                  -7.855
REMARK INTRA:                  -0.544
REMARK UNBOUND:                -0.494
REMARK SMILES O=C(Nc1ccc2c(c1)OC(F)(F)O2)Nc1ccc(Cl)c(C(F)(F)F)c1
REMARK SMILES IDX 20 1 16 2 21 3 26 4 17 5 19 6 18 7 22 8 23 9 24 10 25 11
REMARK SMILES IDX 15 12 2 13 1 15 3 16 4 18 9 19 5 20 8 21 6 22 10 23 7 24
REMARK SMILES IDX 11 25 14 26 12 27 13 28
REMARK H PARENT 15 14 3 17
REMARK Flexibility Score: inf
ROOT
ATOM      1  Cl  UNL     1      87.364   2.951  14.108  1.00  0.00    -0.084 Cl
ATOM      2  C   UNL     1      84.716   0.814  11.141  1.00  0.00     0.043 A 
ATOM      3  C   UNL     1      86.397   0.722  12.874  1.00  0.00     0.076 A 
ATOM      4  C   UNL     1      85.574   0.073  11.954  1.00  0.00     0.040 A 
ATOM      5  C   UNL     1      84.682   2.204  11.247  1.00  0.00     0.028 A 
ATOM      6  C   UNL     1      86.363   2.113  12.980  1.00  0.00     0.053 A 
ATOM      7  C   UNL     1      85.505   2.853  12.167  1.00  0.00     0.023 A 
ENDROOT
BRANCH   3   8
ATOM      8  C   UNL     1      87.300  -0.107  13.728  1.00  0.00     0.417 C 
ATOM      9  F   UNL     1      87.129   0.137  15.058  1.00  0.00    -0.166 F 
ATOM     10  F   UNL     1      87.114  -1.450  13.573  1.00  0.00    -0.166 F 
ATOM     11  F   UNL     1      88.626   0.103  13.481  1.00  0.00    -0.166 F 
ENDBRANCH   3   8
BRANCH   2  12
ATOM     12  N   UNL     1      83.882   0.155  10.207  1.00  0.00    -0.308 N 
ATOM     13  C   UNL     1      82.712  -0.579  10.460  1.00  0.00     0.323 C 
ATOM     14  H   UNL     1      84.173   0.228   9.235  1.00  0.00     0.171 HD
ATOM     15  O   UNL     1      82.218  -0.766  11.567  1.00  0.00    -0.248 OA
ATOM     16  N   UNL     1      82.180  -1.074   9.245  1.00  0.00    -0.308 N 
ATOM     17  H   UNL     1      82.698  -0.838   8.402  1.00  0.00     0.171 HD
BRANCH  16  18
ATOM     18  C   UNL     1      81.034  -1.847   9.046  1.00  0.00     0.046 A 
ATOM     19  C   UNL     1      81.119  -3.239   9.112  1.00  0.00     0.077 A 
ATOM     20  C   UNL     1      79.806  -1.215   8.780  1.00  0.00     0.030 A 
ATOM     21  C   UNL     1      79.960  -3.961   8.909  1.00  0.00     0.174 A 
ATOM     22  C   UNL     1      78.648  -1.969   8.577  1.00  0.00     0.053 A 
ATOM     23  O   UNL     1      79.851  -5.318   8.936  1.00  0.00    -0.395 OA
ATOM     24  C   UNL     1      78.758  -3.343   8.649  1.00  0.00     0.172 A 
ATOM     25  C   UNL     1      78.451  -5.468   8.663  1.00  0.00     0.586 C 
ATOM     26  O   UNL     1      77.741  -4.234   8.480  1.00  0.00    -0.395 OA
ATOM     27  F   UNL     1      77.879  -6.148   9.688  1.00  0.00    -0.125 F 
ATOM     28  F   UNL     1      78.306  -6.221   7.543  1.00  0.00    -0.125 F 
ENDBRANCH  16  18
ENDBRANCH   2  12
TORSDOF 3
ENDMDL
MODEL 14
REMARK VINA RESULT:    -6.724      2.004      2.300
REMARK INTER + INTRA:          -8.397
REMARK INTER:                  -7.851
REMARK INTRA:                  -0.546
REMARK UNBOUND:                -0.494
REMARK SMILES O=C(Nc1ccc2c(c1)OC(F)(F)O2)Nc1ccc(Cl)c(C(F)(F)F)c1
REMARK SMILES IDX 20 1 16 2 21 3 26 4 17 5 19 6 18 7 22 8 23 9 24 10 25 11
REMARK SMILES IDX 15 12 2 13 1 15 3 16 4 18 9 19 5 20 8 21 6 22 10 23 7 24
REMARK SMILES IDX 11 25 14 26 12 27 13 28
REMARK H PARENT 15 14 3 17
REMARK Flexibility Score: inf
ROOT
ATOM      1  Cl  UNL     1      90.854  -2.908  13.859  1.00  0.00    -0.084 Cl
ATOM      2  C   UNL     1      87.217  -0.430  12.852  1.00  0.00     0.043 A 
ATOM      3  C   UNL     1      89.428  -1.212  12.272  1.00  0.00     0.076 A 
ATOM      4  C   UNL     1      88.298  -0.451  11.971  1.00  0.00     0.040 A 
ATOM      5  C   UNL     1      87.264  -1.169  14.033  1.00  0.00     0.028 A 
ATOM      6  C   UNL     1      89.475  -1.951  13.454  1.00  0.00     0.053 A 
ATOM      7  C   UNL     1      88.394  -1.930  14.334  1.00  0.00     0.023 A 
ENDROOT
BRANCH   3   8
ATOM      8  C   UNL     1      90.564  -1.210  11.302  1.00  0.00     0.417 C 
ATOM      9  F   UNL     1      90.835  -2.454  10.813  1.00  0.00    -0.166 F 
ATOM     10  F   UNL     1      90.345  -0.424  10.209  1.00  0.00    -0.166 F 
ATOM     11  F   UNL     1      91.736  -0.761  11.839  1.00  0.00    -0.166 F 
ENDBRANCH   3   8
BRANCH   2  12
ATOM     12  N   UNL     1      86.072   0.344  12.547  1.00  0.00    -0.308 N 
ATOM     13  C   UNL     1      85.068   0.069  11.604  1.00  0.00     0.323 C 
ATOM     14  H   UNL     1      85.971   1.203  13.082  1.00  0.00     0.171 HD
ATOM     15  O   UNL     1      85.030  -0.918  10.877  1.00  0.00    -0.248 OA
ATOM     16  N   UNL     1      84.099   1.101  11.614  1.00  0.00    -0.308 N 
ATOM     17  H   UNL     1      84.262   1.859  12.273  1.00  0.00     0.171 HD
BRANCH  16  18
ATOM     18  C   UNL     1      82.944   1.220  10.839  1.00  0.00     0.046 A 
ATOM     19  C   UNL     1      81.703   0.899  11.393  1.00  0.00     0.077 A 
ATOM     20  C   UNL     1      83.042   1.660   9.507  1.00  0.00     0.030 A 
ATOM     21  C   UNL     1      80.590   1.032  10.589  1.00  0.00     0.174 A 
ATOM     22  C   UNL     1      81.899   1.786   8.714  1.00  0.00     0.053 A 
ATOM     23  O   UNL     1      79.305   0.768  10.954  1.00  0.00    -0.395 OA
ATOM     24  C   UNL     1      80.685   1.464   9.285  1.00  0.00     0.172 A 
ATOM     25  C   UNL     1      78.620   1.082   9.734  1.00  0.00     0.586 C 
ATOM     26  O   UNL     1      79.472   1.525   8.667  1.00  0.00    -0.395 OA
ATOM     27  F   UNL     1      77.705   2.051   9.988  1.00  0.00    -0.125 F 
ATOM     28  F   UNL     1      77.945  -0.019   9.320  1.00  0.00    -0.125 F 
ENDBRANCH  16  18
ENDBRANCH   2  12
TORSDOF 3
ENDMDL
MODEL 15
REMARK VINA RESULT:    -6.664      2.496      3.416
REMARK INTER + INTRA:          -8.327
REMARK INTER:                  -7.877
REMARK INTRA:                  -0.449
REMARK UNBOUND:                -0.494
REMARK SMILES O=C(Nc1ccc2c(c1)OC(F)(F)O2)Nc1ccc(Cl)c(C(F)(F)F)c1
REMARK SMILES IDX 20 1 16 2 21 3 26 4 17 5 19 6 18 7 22 8 23 9 24 10 25 11
REMARK SMILES IDX 15 12 2 13 1 15 3 16 4 18 9 19 5 20 8 21 6 22 10 23 7 24
REMARK SMILES IDX 11 25 14 26 12 27 13 28
REMARK H PARENT 15 14 3 17
REMARK Flexibility Score: inf
ROOT
ATOM      1  Cl  UNL     1      94.329  -1.146  14.639  1.00  0.00    -0.084 Cl
ATOM      2  C   UNL     1      89.890  -0.381  14.335  1.00  0.00     0.043 A 
ATOM      3  C   UNL     1      91.789  -1.811  13.907  1.00  0.00     0.076 A 
ATOM      4  C   UNL     1      90.419  -1.563  13.820  1.00  0.00     0.040 A 
ATOM      5  C   UNL     1      90.730   0.556  14.937  1.00  0.00     0.028 A 
ATOM      6  C   UNL     1      92.630  -0.874  14.509  1.00  0.00     0.053 A 
ATOM      7  C   UNL     1      92.100   0.309  15.024  1.00  0.00     0.023 A 
ENDROOT
BRANCH   3   8
ATOM      8  C   UNL     1      92.317  -3.091  13.346  1.00  0.00     0.417 C 
ATOM      9  F   UNL     1      91.358  -3.811  12.697  1.00  0.00    -0.166 F 
ATOM     10  F   UNL     1      93.322  -2.915  12.440  1.00  0.00    -0.166 F 
ATOM     11  F   UNL     1      92.831  -3.929  14.293  1.00  0.00    -0.166 F 
ENDBRANCH   3   8
BRANCH   2  12
ATOM     12  N   UNL     1      88.501  -0.129  14.245  1.00  0.00    -0.308 N 
ATOM     13  C   UNL     1      87.761   0.248  13.112  1.00  0.00     0.323 C 
ATOM     14  H   UNL     1      87.981  -0.238  15.113  1.00  0.00     0.171 HD
ATOM     15  O   UNL     1      88.224   0.422  11.990  1.00  0.00    -0.248 OA
ATOM     16  N   UNL     1      86.395   0.398  13.454  1.00  0.00    -0.308 N 
ATOM     17  H   UNL     1      86.157   0.220  14.427  1.00  0.00     0.171 HD
BRANCH  16  18
ATOM     18  C   UNL     1      85.326   0.759  12.632  1.00  0.00     0.046 A 
ATOM     19  C   UNL     1      84.265  -0.129  12.448  1.00  0.00     0.077 A 
ATOM     20  C   UNL     1      85.329   2.014  11.998  1.00  0.00     0.030 A 
ATOM     21  C   UNL     1      83.230   0.272  11.628  1.00  0.00     0.174 A 
ATOM     22  C   UNL     1      84.269   2.395  11.172  1.00  0.00     0.053 A 
ATOM     23  O   UNL     1      82.118  -0.457  11.332  1.00  0.00    -0.395 OA
ATOM     24  C   UNL     1      83.233   1.501  11.006  1.00  0.00     0.172 A 
ATOM     25  C   UNL     1      81.437   0.457  10.461  1.00  0.00     0.586 C 
ATOM     26  O   UNL     1      82.122   1.699  10.243  1.00  0.00    -0.395 OA
ATOM     27  F   UNL     1      80.213   0.723  10.983  1.00  0.00    -0.125 F 
ATOM     28  F   UNL     1      81.246  -0.149   9.262  1.00  0.00    -0.125 F 
ENDBRANCH  16  18
ENDBRANCH   2  12
TORSDOF 3
ENDMDL
MODEL 16
REMARK VINA RESULT:    -6.632      3.277      4.170
REMARK INTER + INTRA:          -8.289
REMARK INTER:                  -7.818
REMARK INTRA:                  -0.471
REMARK UNBOUND:                -0.494
REMARK SMILES O=C(Nc1ccc2c(c1)OC(F)(F)O2)Nc1ccc(Cl)c(C(F)(F)F)c1
REMARK SMILES IDX 20 1 16 2 21 3 26 4 17 5 19 6 18 7 22 8 23 9 24 10 25 11
REMARK SMILES IDX 15 12 2 13 1 15 3 16 4 18 9 19 5 20 8 21 6 22 10 23 7 24
REMARK SMILES IDX 11 25 14 26 12 27 13 28
REMARK H PARENT 15 14 3 17
REMARK Flexibility Score: inf
ROOT
ATOM      1  Cl  UNL     1      92.782   1.317  17.345  1.00  0.00    -0.084 Cl
ATOM      2  C   UNL     1      89.782   0.608  14.047  1.00  0.00     0.043 A 
ATOM      3  C   UNL     1      90.884   2.129  15.566  1.00  0.00     0.076 A 
ATOM      4  C   UNL     1      89.961   1.898  14.547  1.00  0.00     0.040 A 
ATOM      5  C   UNL     1      90.525  -0.451  14.567  1.00  0.00     0.028 A 
ATOM      6  C   UNL     1      91.628   1.070  16.086  1.00  0.00     0.053 A 
ATOM      7  C   UNL     1      91.449  -0.220  15.587  1.00  0.00     0.023 A 
ENDROOT
BRANCH   3   8
ATOM      8  C   UNL     1      91.048   3.525  16.072  1.00  0.00     0.417 C 
ATOM      9  F   UNL     1      90.816   3.626  17.412  1.00  0.00    -0.166 F 
ATOM     10  F   UNL     1      92.300   4.031  15.877  1.00  0.00    -0.166 F 
ATOM     11  F   UNL     1      90.203   4.420  15.482  1.00  0.00    -0.166 F 
ENDBRANCH   3   8
BRANCH   2  12
ATOM     12  N   UNL     1      88.844   0.373  13.014  1.00  0.00    -0.308 N 
ATOM     13  C   UNL     1      87.444   0.313  13.114  1.00  0.00     0.323 C 
ATOM     14  H   UNL     1      89.241   0.232  12.089  1.00  0.00     0.171 HD
ATOM     15  O   UNL     1      86.800   0.462  14.147  1.00  0.00    -0.248 OA
ATOM     16  N   UNL     1      86.879   0.057  11.841  1.00  0.00    -0.308 N 
ATOM     17  H   UNL     1      87.538  -0.042  11.073  1.00  0.00     0.171 HD
BRANCH  16  18
ATOM     18  C   UNL     1      85.533  -0.077  11.497  1.00  0.00     0.046 A 
ATOM     19  C   UNL     1      84.662   0.999  11.678  1.00  0.00     0.077 A 
ATOM     20  C   UNL     1      85.068  -1.296  10.971  1.00  0.00     0.030 A 
ATOM     21  C   UNL     1      83.340   0.819  11.322  1.00  0.00     0.174 A 
ATOM     22  C   UNL     1      83.725  -1.452  10.620  1.00  0.00     0.053 A 
ATOM     23  O   UNL     1      82.352   1.750  11.428  1.00  0.00    -0.395 OA
ATOM     24  C   UNL     1      82.884  -0.374  10.807  1.00  0.00     0.172 A 
ATOM     25  C   UNL     1      81.238   1.001  10.922  1.00  0.00     0.586 C 
ATOM     26  O   UNL     1      81.552  -0.342  10.524  1.00  0.00    -0.395 OA
ATOM     27  F   UNL     1      80.721   1.659   9.855  1.00  0.00    -0.125 F 
ATOM     28  F   UNL     1      80.277   0.955  11.879  1.00  0.00    -0.125 F 
ENDBRANCH  16  18
ENDBRANCH   2  12
TORSDOF 3
ENDMDL
MODEL 17
REMARK VINA RESULT:    -6.627      8.456      9.147
REMARK INTER + INTRA:          -8.283
REMARK INTER:                  -7.754
REMARK INTRA:                  -0.530
REMARK UNBOUND:                -0.494
REMARK SMILES O=C(Nc1ccc2c(c1)OC(F)(F)O2)Nc1ccc(Cl)c(C(F)(F)F)c1
REMARK SMILES IDX 20 1 16 2 21 3 26 4 17 5 19 6 18 7 22 8 23 9 24 10 25 11
REMARK SMILES IDX 15 12 2 13 1 15 3 16 4 18 9 19 5 20 8 21 6 22 10 23 7 24
REMARK SMILES IDX 11 25 14 26 12 27 13 28
REMARK H PARENT 15 14 3 17
REMARK Flexibility Score: inf
ROOT
ATOM      1  Cl  UNL     1      87.972   1.953   9.588  1.00  0.00    -0.084 Cl
ATOM      2  C   UNL     1      86.195   5.622  11.527  1.00  0.00     0.043 A 
ATOM      3  C   UNL     1      86.023   3.282  10.951  1.00  0.00     0.076 A 
ATOM      4  C   UNL     1      85.485   4.422  11.548  1.00  0.00     0.040 A 
ATOM      5  C   UNL     1      87.444   5.683  10.908  1.00  0.00     0.028 A 
ATOM      6  C   UNL     1      87.272   3.343  10.333  1.00  0.00     0.053 A 
ATOM      7  C   UNL     1      87.983   4.542  10.312  1.00  0.00     0.023 A 
ENDROOT
BRANCH   3   8
ATOM      8  C   UNL     1      85.232   2.015  10.998  1.00  0.00     0.417 C 
ATOM      9  F   UNL     1      85.863   1.031  11.699  1.00  0.00    -0.166 F 
ATOM     10  F   UNL     1      84.008   2.159  11.584  1.00  0.00    -0.166 F 
ATOM     11  F   UNL     1      84.979   1.487   9.765  1.00  0.00    -0.166 F 
ENDBRANCH   3   8
BRANCH   2  12
ATOM     12  N   UNL     1      85.648   6.779  12.131  1.00  0.00    -0.308 N 
ATOM     13  C   UNL     1      84.668   7.642  11.615  1.00  0.00     0.323 C 
ATOM     14  H   UNL     1      86.016   7.005  13.051  1.00  0.00     0.171 HD
ATOM     15  O   UNL     1      84.116   7.519  10.526  1.00  0.00    -0.248 OA
ATOM     16  N   UNL     1      84.403   8.680  12.541  1.00  0.00    -0.308 N 
ATOM     17  H   UNL     1      84.938   8.654  13.405  1.00  0.00     0.171 HD
BRANCH  16  18
ATOM     18  C   UNL     1      83.504   9.742  12.425  1.00  0.00     0.046 A 
ATOM     19  C   UNL     1      83.984  11.036  12.215  1.00  0.00     0.077 A 
ATOM     20  C   UNL     1      82.122   9.497  12.523  1.00  0.00     0.030 A 
ATOM     21  C   UNL     1      83.058  12.053  12.107  1.00  0.00     0.174 A 
ATOM     22  C   UNL     1      81.205  10.545  12.411  1.00  0.00     0.053 A 
ATOM     23  O   UNL     1      83.339  13.370  11.903  1.00  0.00    -0.395 OA
ATOM     24  C   UNL     1      81.705  11.814  12.203  1.00  0.00     0.172 A 
ATOM     25  C   UNL     1      82.013  13.915  11.884  1.00  0.00     0.586 C 
ATOM     26  O   UNL     1      80.966  12.951  12.070  1.00  0.00    -0.395 OA
ATOM     27  F   UNL     1      81.818  14.541  10.696  1.00  0.00    -0.125 F 
ATOM     28  F   UNL     1      81.916  14.853  12.860  1.00  0.00    -0.125 F 
ENDBRANCH  16  18
ENDBRANCH   2  12
TORSDOF 3
ENDMDL
MODEL 18
REMARK VINA RESULT:    -6.626      1.713      2.113
REMARK INTER + INTRA:          -8.282
REMARK INTER:                  -7.788
REMARK INTRA:                  -0.494
REMARK UNBOUND:                -0.494
REMARK SMILES O=C(Nc1ccc2c(c1)OC(F)(F)O2)Nc1ccc(Cl)c(C(F)(F)F)c1
REMARK SMILES IDX 20 1 16 2 21 3 26 4 17 5 19 6 18 7 22 8 23 9 24 10 25 11
REMARK SMILES IDX 15 12 2 13 1 15 3 16 4 18 9 19 5 20 8 21 6 22 10 23 7 24
REMARK SMILES IDX 11 25 14 26 12 27 13 28
REMARK H PARENT 15 14 3 17
REMARK Flexibility Score: inf
ROOT
ATOM      1  Cl  UNL     1      91.433  -0.550  14.742  1.00  0.00    -0.084 Cl
ATOM      2  C   UNL     1      87.032  -0.395  13.747  1.00  0.00     0.043 A 
ATOM      3  C   UNL     1      89.162  -1.526  13.596  1.00  0.00     0.076 A 
ATOM      4  C   UNL     1      87.801  -1.468  13.295  1.00  0.00     0.040 A 
ATOM      5  C   UNL     1      87.624   0.620  14.498  1.00  0.00     0.028 A 
ATOM      6  C   UNL     1      89.754  -0.511  14.347  1.00  0.00     0.053 A 
ATOM      7  C   UNL     1      88.985   0.562  14.799  1.00  0.00     0.023 A 
ENDROOT
BRANCH   3   8
ATOM      8  C   UNL     1      89.950  -2.693  13.096  1.00  0.00     0.417 C 
ATOM      9  F   UNL     1      89.192  -3.562  12.369  1.00  0.00    -0.166 F 
ATOM     10  F   UNL     1      90.988  -2.341  12.284  1.00  0.00    -0.166 F 
ATOM     11  F   UNL     1      90.511  -3.437  14.093  1.00  0.00    -0.166 F 
ENDBRANCH   3   8
BRANCH   2  12
ATOM     12  N   UNL     1      85.652  -0.335  13.440  1.00  0.00    -0.308 N 
ATOM     13  C   UNL     1      85.050  -0.252  12.174  1.00  0.00     0.323 C 
ATOM     14  H   UNL     1      85.027  -0.356  14.242  1.00  0.00     0.171 HD
ATOM     15  O   UNL     1      85.650  -0.219  11.105  1.00  0.00    -0.248 OA
ATOM     16  N   UNL     1      83.641  -0.214  12.310  1.00  0.00    -0.308 N 
ATOM     17  H   UNL     1      83.285  -0.250  13.262  1.00  0.00     0.171 HD
BRANCH  16  18
ATOM     18  C   UNL     1      82.671  -0.133  11.310  1.00  0.00     0.046 A 
ATOM     19  C   UNL     1      82.305  -1.284  10.607  1.00  0.00     0.077 A 
ATOM     20  C   UNL     1      82.073   1.105  11.019  1.00  0.00     0.030 A 
ATOM     21  C   UNL     1      81.341  -1.155   9.628  1.00  0.00     0.174 A 
ATOM     22  C   UNL     1      81.100   1.208  10.022  1.00  0.00     0.053 A 
ATOM     23  O   UNL     1      80.861  -2.160   8.845  1.00  0.00    -0.395 OA
ATOM     24  C   UNL     1      80.755   0.058   9.343  1.00  0.00     0.172 A 
ATOM     25  C   UNL     1      79.916  -1.434   8.046  1.00  0.00     0.586 C 
ATOM     26  O   UNL     1      79.832  -0.033   8.345  1.00  0.00    -0.395 OA
ATOM     27  F   UNL     1      78.689  -1.987   8.216  1.00  0.00    -0.125 F 
ATOM     28  F   UNL     1      80.251  -1.579   6.739  1.00  0.00    -0.125 F 
ENDBRANCH  16  18
ENDBRANCH   2  12
TORSDOF 3
ENDMDL
MODEL 19
REMARK VINA RESULT:    -6.619      4.714      6.638
REMARK INTER + INTRA:          -8.274
REMARK INTER:                  -7.802
REMARK INTRA:                  -0.472
REMARK UNBOUND:                -0.494
REMARK SMILES O=C(Nc1ccc2c(c1)OC(F)(F)O2)Nc1ccc(Cl)c(C(F)(F)F)c1
REMARK SMILES IDX 20 1 16 2 21 3 26 4 17 5 19 6 18 7 22 8 23 9 24 10 25 11
REMARK SMILES IDX 15 12 2 13 1 15 3 16 4 18 9 19 5 20 8 21 6 22 10 23 7 24
REMARK SMILES IDX 11 25 14 26 12 27 13 28
REMARK H PARENT 15 14 3 17
REMARK Flexibility Score: inf
ROOT
ATOM      1  Cl  UNL     1      86.217   3.807   9.278  1.00  0.00    -0.084 Cl
ATOM      2  C   UNL     1      82.370   1.449   9.422  1.00  0.00     0.043 A 
ATOM      3  C   UNL     1      84.350   2.271  10.535  1.00  0.00     0.076 A 
ATOM      4  C   UNL     1      83.159   1.546  10.568  1.00  0.00     0.040 A 
ATOM      5  C   UNL     1      82.772   2.076   8.243  1.00  0.00     0.028 A 
ATOM      6  C   UNL     1      84.752   2.898   9.356  1.00  0.00     0.053 A 
ATOM      7  C   UNL     1      83.963   2.801   8.210  1.00  0.00     0.023 A 
ENDROOT
BRANCH   3   8
ATOM      8  C   UNL     1      85.166   2.354  11.785  1.00  0.00     0.417 C 
ATOM      9  F   UNL     1      84.764   1.458  12.731  1.00  0.00    -0.166 F 
ATOM     10  F   UNL     1      86.493   2.109  11.585  1.00  0.00    -0.166 F 
ATOM     11  F   UNL     1      85.113   3.577  12.389  1.00  0.00    -0.166 F 
ENDBRANCH   3   8
BRANCH   2  12
ATOM     12  N   UNL     1      81.162   0.712   9.456  1.00  0.00    -0.308 N 
ATOM     13  C   UNL     1      80.896  -0.538   8.873  1.00  0.00     0.323 C 
ATOM     14  H   UNL     1      80.399   1.149   9.966  1.00  0.00     0.171 HD
ATOM     15  O   UNL     1      81.697  -1.204   8.226  1.00  0.00    -0.248 OA
ATOM     16  N   UNL     1      79.560  -0.922   9.144  1.00  0.00    -0.308 N 
ATOM     17  H   UNL     1      79.011  -0.267   9.695  1.00  0.00     0.171 HD
BRANCH  16  18
ATOM     18  C   UNL     1      78.892  -2.084   8.754  1.00  0.00     0.046 A 
ATOM     19  C   UNL     1      79.106  -3.273   9.454  1.00  0.00     0.077 A 
ATOM     20  C   UNL     1      78.010  -2.046   7.659  1.00  0.00     0.030 A 
ATOM     21  C   UNL     1      78.423  -4.396   9.033  1.00  0.00     0.174 A 
ATOM     22  C   UNL     1      77.331  -3.197   7.253  1.00  0.00     0.053 A 
ATOM     23  O   UNL     1      78.505  -5.635   9.590  1.00  0.00    -0.395 OA
ATOM     24  C   UNL     1      77.559  -4.358   7.961  1.00  0.00     0.172 A 
ATOM     25  C   UNL     1      77.599  -6.357   8.745  1.00  0.00     0.586 C 
ATOM     26  O   UNL     1      76.989  -5.570   7.711  1.00  0.00    -0.395 OA
ATOM     27  F   UNL     1      76.619  -6.892   9.516  1.00  0.00    -0.125 F 
ATOM     28  F   UNL     1      78.271  -7.385   8.168  1.00  0.00    -0.125 F 
ENDBRANCH  16  18
ENDBRANCH   2  12
TORSDOF 3
ENDMDL
MODEL 20
REMARK VINA RESULT:    -6.577      3.771      9.411
REMARK INTER + INTRA:          -8.225
REMARK INTER:                  -7.830
REMARK INTRA:                  -0.394
REMARK UNBOUND:                -0.494
REMARK SMILES O=C(Nc1ccc2c(c1)OC(F)(F)O2)Nc1ccc(Cl)c(C(F)(F)F)c1
REMARK SMILES IDX 20 1 16 2 21 3 26 4 17 5 19 6 18 7 22 8 23 9 24 10 25 11
REMARK SMILES IDX 15 12 2 13 1 15 3 16 4 18 9 19 5 20 8 21 6 22 10 23 7 24
REMARK SMILES IDX 11 25 14 26 12 27 13 28
REMARK H PARENT 15 14 3 17
REMARK Flexibility Score: inf
ROOT
ATOM      1  Cl  UNL     1      79.637   0.373   8.423  1.00  0.00    -0.084 Cl
ATOM      2  C   UNL     1      82.947  -0.122  11.454  1.00  0.00     0.043 A 
ATOM      3  C   UNL     1      81.530  -1.075   9.744  1.00  0.00     0.076 A 
ATOM      4  C   UNL     1      82.552  -1.216  10.683  1.00  0.00     0.040 A 
ATOM      5  C   UNL     1      82.319   1.112  11.286  1.00  0.00     0.028 A 
ATOM      6  C   UNL     1      80.903   0.159   9.577  1.00  0.00     0.053 A 
ATOM      7  C   UNL     1      81.297   1.253  10.347  1.00  0.00     0.023 A 
ENDROOT
BRANCH   3   8
ATOM      8  C   UNL     1      81.139  -2.270   8.937  1.00  0.00     0.417 C 
ATOM      9  F   UNL     1      79.851  -2.655   9.166  1.00  0.00    -0.166 F 
ATOM     10  F   UNL     1      81.230  -2.070   7.590  1.00  0.00    -0.166 F 
ATOM     11  F   UNL     1      81.904  -3.371   9.189  1.00  0.00    -0.166 F 
ENDBRANCH   3   8
BRANCH   2  12
ATOM     12  N   UNL     1      83.982  -0.266  12.407  1.00  0.00    -0.308 N 
ATOM     13  C   UNL     1      85.353  -0.464  12.172  1.00  0.00     0.323 C 
ATOM     14  H   UNL     1      83.689  -0.218  13.380  1.00  0.00     0.171 HD
ATOM     15  O   UNL     1      85.878  -0.544  11.067  1.00  0.00    -0.248 OA
ATOM     16  N   UNL     1      86.046  -0.556  13.403  1.00  0.00    -0.308 N 
ATOM     17  H   UNL     1      85.478  -0.470  14.242  1.00  0.00     0.171 HD
BRANCH  16  18
ATOM     18  C   UNL     1      87.411  -0.750  13.622  1.00  0.00     0.046 A 
ATOM     19  C   UNL     1      88.051  -1.858  13.062  1.00  0.00     0.077 A 
ATOM     20  C   UNL     1      88.129   0.172  14.405  1.00  0.00     0.030 A 
ATOM     21  C   UNL     1      89.401  -2.008  13.306  1.00  0.00     0.174 A 
ATOM     22  C   UNL     1      89.495  -0.003  14.636  1.00  0.00     0.053 A 
ATOM     23  O   UNL     1      90.187  -3.020  12.846  1.00  0.00    -0.395 OA
ATOM     24  C   UNL     1      90.104  -1.105  14.072  1.00  0.00     0.172 A 
ATOM     25  C   UNL     1      91.449  -2.644  13.412  1.00  0.00     0.586 C 
ATOM     26  O   UNL     1      91.420  -1.437  14.189  1.00  0.00    -0.395 OA
ATOM     27  F   UNL     1      92.347  -2.490  12.407  1.00  0.00    -0.125 F 
ATOM     28  F   UNL     1      91.890  -3.656  14.201  1.00  0.00    -0.125 F 
ENDBRANCH  16  18
ENDBRANCH   2  12
TORSDOF 3
ENDMDL
