MODEL 1
REMARK VINA RESULT:    -4.681      0.000      0.000
REMARK INTER + INTRA:          -5.420
REMARK INTER:                  -5.085
REMARK INTRA:                  -0.335
REMARK UNBOUND:                -0.193
REMARK SMILES [O-][C](N1CCOCC1)N1CCS1([O-])[O-]
REMARK SMILES IDX 2 1 1 2 3 3 4 4 5 5 6 6 8 7 7 8 9 9 10 10 12 11 11 12 13 13
REMARK SMILES IDX 14 14
REMARK H PARENT
REMARK INDEX MAP 7 1 8 2 6 3 1 4 2 5 3 6 5 7 4 8 9 9 10 10 12 11 11 12 13 13
REMARK INDEX MAP 14 14
REMARK Flexibility Score: inf
ROOT
ATOM      1  C   UNL     1      -5.658  -0.282  -0.327  1.00  0.00     0.029 C 
ATOM      2  O   UNL     1      -6.576  -0.512   0.493  1.00  0.00    -0.824 OA
ENDROOT
BRANCH   1   3
ATOM      3  N   UNL     1      -5.336   1.112  -0.825  1.00  0.00    -0.292 NA
ATOM      4  C   UNL     1      -4.438   1.882   0.083  1.00  0.00     0.022 C 
ATOM      5  C   UNL     1      -3.886   3.203  -0.534  1.00  0.00     0.059 C 
ATOM      6  O   UNL     1      -4.571   3.573  -1.781  1.00  0.00    -0.379 OA
ATOM      7  C   UNL     1      -4.731   1.062  -2.183  1.00  0.00     0.022 C 
ATOM      8  C   UNL     1      -4.627   2.485  -2.788  1.00  0.00     0.059 C 
ENDBRANCH   1   3
BRANCH   1   9
ATOM      9  N   UNL     1      -4.785  -1.362  -0.883  1.00  0.00    -0.263 NA
ATOM     10  C   UNL     1      -5.463  -2.705  -0.775  1.00  0.00     0.025 C 
ATOM     11  S   UNL     1      -3.461  -1.835   0.021  1.00  0.00    -0.478 S 
ATOM     12  C   UNL     1      -4.411  -3.380   0.139  1.00  0.00    -0.003 C 
ATOM     13  O   UNL     1      -2.185  -1.957  -0.787  1.00  0.00    -0.787 OA
ATOM     14  O   UNL     1      -3.293  -1.155   1.356  1.00  0.00    -0.787 OA
ENDBRANCH   1   9
TORSDOF 2
ENDMDL
MODEL 2
REMARK VINA RESULT:    -4.545     10.418     12.441
REMARK INTER + INTRA:          -5.268
REMARK INTER:                  -5.085
REMARK INTRA:                  -0.184
REMARK UNBOUND:                -0.193
REMARK SMILES [O-][C](N1CCOCC1)N1CCS1([O-])[O-]
REMARK SMILES IDX 2 1 1 2 3 3 4 4 5 5 6 6 8 7 7 8 9 9 10 10 12 11 11 12 13 13
REMARK SMILES IDX 14 14
REMARK H PARENT
REMARK INDEX MAP 7 1 8 2 6 3 1 4 2 5 3 6 5 7 4 8 9 9 10 10 12 11 11 12 13 13
REMARK INDEX MAP 14 14
REMARK Flexibility Score: inf
ROOT
ATOM      1  C   UNL     1      -1.557  10.222   4.129  1.00  0.00     0.029 C 
ATOM      2  O   UNL     1      -2.565  10.372   4.856  1.00  0.00    -0.824 OA
ENDROOT
BRANCH   1   3
ATOM      3  N   UNL     1      -1.647   9.750   2.692  1.00  0.00    -0.292 NA
ATOM      4  C   UNL     1      -3.045   9.570   2.205  1.00  0.00     0.022 C 
ATOM      5  C   UNL     1      -3.161   9.345   0.666  1.00  0.00     0.059 C 
ATOM      6  O   UNL     1      -1.861   9.081   0.035  1.00  0.00    -0.379 OA
ATOM      7  C   UNL     1      -0.929  10.683   1.782  1.00  0.00     0.022 C 
ATOM      8  C   UNL     1      -0.814  10.079   0.360  1.00  0.00     0.059 C 
ENDBRANCH   1   3
BRANCH   1   9
ATOM      9  N   UNL     1      -0.168  10.506   4.607  1.00  0.00    -0.263 NA
ATOM     10  C   UNL     1       0.052   9.926   5.982  1.00  0.00     0.025 C 
ATOM     11  S   UNL     1       0.184  12.068   5.090  1.00  0.00    -0.478 S 
ATOM     12  C   UNL     1       0.348  11.261   6.710  1.00  0.00    -0.003 C 
ATOM     13  O   UNL     1       1.489  12.598   4.531  1.00  0.00    -0.787 OA
ATOM     14  O   UNL     1      -0.961  13.049   5.045  1.00  0.00    -0.787 OA
ENDBRANCH   1   9
TORSDOF 2
ENDMDL
MODEL 3
REMARK VINA RESULT:    -4.528     18.128     19.271
REMARK INTER + INTRA:          -5.250
REMARK INTER:                  -4.944
REMARK INTRA:                  -0.306
REMARK UNBOUND:                -0.193
REMARK SMILES [O-][C](N1CCOCC1)N1CCS1([O-])[O-]
REMARK SMILES IDX 2 1 1 2 3 3 4 4 5 5 6 6 8 7 7 8 9 9 10 10 12 11 11 12 13 13
REMARK SMILES IDX 14 14
REMARK H PARENT
REMARK INDEX MAP 7 1 8 2 6 3 1 4 2 5 3 6 5 7 4 8 9 9 10 10 12 11 11 12 13 13
REMARK INDEX MAP 14 14
REMARK Flexibility Score: inf
ROOT
ATOM      1  C   UNL     1      12.310   7.649   3.193  1.00  0.00     0.029 C 
ATOM      2  O   UNL     1      13.101   7.146   4.023  1.00  0.00    -0.824 OA
ENDROOT
BRANCH   1   3
ATOM      3  N   UNL     1      12.616   7.726   1.711  1.00  0.00    -0.292 NA
ATOM      4  C   UNL     1      13.830   8.531   1.390  1.00  0.00     0.022 C 
ATOM      5  C   UNL     1      14.309   8.403  -0.088  1.00  0.00     0.059 C 
ATOM      6  O   UNL     1      13.320   7.735  -0.946  1.00  0.00    -0.379 OA
ATOM      7  C   UNL     1      12.765   6.365   1.130  1.00  0.00     0.022 C 
ATOM      8  C   UNL     1      12.836   6.437  -0.417  1.00  0.00     0.059 C 
ENDBRANCH   1   3
BRANCH   1   9
ATOM      9  N   UNL     1      10.979   8.209   3.586  1.00  0.00    -0.263 NA
ATOM     10  C   UNL     1      10.239   8.726   2.377  1.00  0.00     0.025 C 
ATOM     11  S   UNL     1      10.957   9.687   4.367  1.00  0.00    -0.478 S 
ATOM     12  C   UNL     1      10.140  10.204   2.829  1.00  0.00    -0.003 C 
ATOM     13  O   UNL     1      10.055   9.718   5.585  1.00  0.00    -0.787 OA
ATOM     14  O   UNL     1      12.296  10.352   4.563  1.00  0.00    -0.787 OA
ENDBRANCH   1   9
TORSDOF 2
ENDMDL
MODEL 4
REMARK VINA RESULT:    -4.417      2.441      2.890
REMARK INTER + INTRA:          -5.125
REMARK INTER:                  -4.870
REMARK INTRA:                  -0.256
REMARK UNBOUND:                -0.193
REMARK SMILES [O-][C](N1CCOCC1)N1CCS1([O-])[O-]
REMARK SMILES IDX 2 1 1 2 3 3 4 4 5 5 6 6 8 7 7 8 9 9 10 10 12 11 11 12 13 13
REMARK SMILES IDX 14 14
REMARK H PARENT
REMARK INDEX MAP 7 1 8 2 6 3 1 4 2 5 3 6 5 7 4 8 9 9 10 10 12 11 11 12 13 13
REMARK INDEX MAP 14 14
REMARK Flexibility Score: inf
ROOT
ATOM      1  C   UNL     1      -3.856  -0.611  -2.403  1.00  0.00     0.029 C 
ATOM      2  O   UNL     1      -4.843  -1.353  -2.197  1.00  0.00    -0.824 OA
ENDROOT
BRANCH   1   3
ATOM      3  N   UNL     1      -3.792   0.822  -1.917  1.00  0.00    -0.292 NA
ATOM      4  C   UNL     1      -4.575   1.776  -2.756  1.00  0.00     0.022 C 
ATOM      5  C   UNL     1      -4.738   3.194  -2.128  1.00  0.00     0.059 C 
ATOM      6  O   UNL     1      -3.862   3.400  -0.966  1.00  0.00    -0.379 OA
ATOM      7  C   UNL     1      -4.249   0.924  -0.506  1.00  0.00     0.022 C 
ATOM      8  C   UNL     1      -3.957   2.336   0.063  1.00  0.00     0.059 C 
ENDBRANCH   1   3
BRANCH   1   9
ATOM      9  N   UNL     1      -2.638  -1.077  -3.138  1.00  0.00    -0.263 NA
ATOM     10  C   UNL     1      -2.983  -2.199  -4.085  1.00  0.00     0.025 C 
ATOM     11  S   UNL     1      -1.519  -1.987  -2.293  1.00  0.00    -0.478 S 
ATOM     12  C   UNL     1      -2.074  -3.277  -3.446  1.00  0.00    -0.003 C 
ATOM     13  O   UNL     1      -0.087  -1.543  -2.508  1.00  0.00    -0.787 OA
ATOM     14  O   UNL     1      -1.868  -2.302  -0.860  1.00  0.00    -0.787 OA
ENDBRANCH   1   9
TORSDOF 2
ENDMDL
MODEL 5
REMARK VINA RESULT:    -4.412      3.078      3.656
REMARK INTER + INTRA:          -5.120
REMARK INTER:                  -4.820
REMARK INTRA:                  -0.301
REMARK UNBOUND:                -0.193
REMARK SMILES [O-][C](N1CCOCC1)N1CCS1([O-])[O-]
REMARK SMILES IDX 2 1 1 2 3 3 4 4 5 5 6 6 8 7 7 8 9 9 10 10 12 11 11 12 13 13
REMARK SMILES IDX 14 14
REMARK H PARENT
REMARK INDEX MAP 7 1 8 2 6 3 1 4 2 5 3 6 5 7 4 8 9 9 10 10 12 11 11 12 13 13
REMARK INDEX MAP 14 14
REMARK Flexibility Score: inf
ROOT
ATOM      1  C   UNL     1      -3.372  -1.975  -2.401  1.00  0.00     0.029 C 
ATOM      2  O   UNL     1      -3.897  -3.112  -2.420  1.00  0.00    -0.824 OA
ENDROOT
BRANCH   1   3
ATOM      3  N   UNL     1      -3.913  -0.837  -1.561  1.00  0.00    -0.292 NA
ATOM      4  C   UNL     1      -3.843  -1.089  -0.092  1.00  0.00     0.022 C 
ATOM      5  C   UNL     1      -4.145   0.164   0.786  1.00  0.00     0.059 C 
ATOM      6  O   UNL     1      -4.705   1.277   0.007  1.00  0.00    -0.379 OA
ATOM      7  C   UNL     1      -3.206   0.434  -1.872  1.00  0.00     0.022 C 
ATOM      8  C   UNL     1      -3.916   1.634  -1.197  1.00  0.00     0.059 C 
ENDBRANCH   1   3
BRANCH   1   9
ATOM      9  N   UNL     1      -2.152  -1.639  -3.199  1.00  0.00    -0.263 NA
ATOM     10  C   UNL     1      -2.031  -2.544  -4.399  1.00  0.00     0.025 C 
ATOM     11  S   UNL     1      -0.666  -2.085  -2.575  1.00  0.00    -0.478 S 
ATOM     12  C   UNL     1      -0.673  -3.187  -4.021  1.00  0.00    -0.003 C 
ATOM     13  O   UNL     1       0.376  -0.988  -2.642  1.00  0.00    -0.787 OA
ATOM     14  O   UNL     1      -0.696  -2.842  -1.271  1.00  0.00    -0.787 OA
ENDBRANCH   1   9
TORSDOF 2
ENDMDL
