REMARK SMILES [O-][C](N1CCOCC1)N1CCS1([O-])[O-]
REMARK SMILES IDX 2 1 1 2 3 3 4 4 5 5 6 6 8 7 7 8 9 9 10 10 12 11 11 12 13 13
REMARK SMILES IDX 14 14
REMARK H PARENT
REMARK INDEX MAP 7 1 8 2 6 3 1 4 2 5 3 6 5 7 4 8 9 9 10 10 12 11 11 12 13 13
REMARK INDEX MAP 14 14
REMARK Flexibility Score: inf
ROOT
ATOM      1  C   UNL     1      -2.417  -2.970  -3.268  1.00  0.00     0.029 C 
ATOM      2  O   UNL     1      -1.173  -2.834  -3.270  1.00  0.00    -0.824 OA
ENDROOT
BRANCH   1   3
ATOM      3  N   UNL     1      -3.316  -2.270  -2.269  1.00  0.00    -0.292 NA
ATOM      4  C   UNL     1      -2.930  -2.503  -0.847  1.00  0.00     0.022 C 
ATOM      5  C   UNL     1      -3.671  -1.587   0.174  1.00  0.00     0.059 C 
ATOM      6  O   UNL     1      -4.801  -0.866  -0.430  1.00  0.00    -0.379 OA
ATOM      7  C   UNL     1      -3.358  -0.806  -2.530  1.00  0.00     0.022 C 
ATOM      8  C   UNL     1      -4.457  -0.130  -1.671  1.00  0.00     0.059 C 
ENDBRANCH   1   3
BRANCH   1   9
ATOM      9  N   UNL     1      -3.136  -3.828  -4.261  1.00  0.00    -0.263 NA
ATOM     10  C   UNL     1      -3.304  -3.100  -5.572  1.00  0.00     0.025 C 
ATOM     11  S   UNL     1      -4.779  -4.054  -4.050  1.00  0.00    -0.478 S 
ATOM     12  C   UNL     1      -4.853  -3.102  -5.597  1.00  0.00    -0.003 C 
ATOM     13  O   UNL     1      -5.218  -5.497  -4.193  1.00  0.00    -0.787 OA
ATOM     14  O   UNL     1      -5.404  -3.321  -2.889  1.00  0.00    -0.787 OA
ENDBRANCH   1   9
TORSDOF 2
