MODEL 1
REMARK VINA RESULT:    -7.221      0.000      0.000
REMARK INTER + INTRA:         -10.617
REMARK INTER:                  -9.665
REMARK INTRA:                  -0.952
REMARK UNBOUND:                -0.863
REMARK SMILES CNC(=O)c1cc(Oc2ccc(NC(=O)Nc3ccc(Cl)c(C(F)(F)F)c3)cc2)ccn1
REMARK SMILES IDX 12 1 9 2 11 3 28 4 10 5 29 6 13 7 16 8 14 9 15 11 17 13
REMARK SMILES IDX 21 14 20 15 22 16 19 17 27 18 18 19 23 20 24 21 25 22 26 23
REMARK SMILES IDX 8 24 7 25 6 26 30 27 5 28 31 29 32 30 3 31 4 32 2 33 1 34
REMARK H PARENT 16 10 13 12 2 35
REMARK Flexibility Score: inf
ROOT
ATOM      1  C   UNL     1      96.604 -11.196  24.223  1.00  0.00     0.043 A 
ATOM      2  C   UNL     1      98.710 -10.258  25.757  1.00  0.00     0.127 A 
ATOM      3  C   UNL     1      96.439 -10.038  24.964  1.00  0.00     0.030 A 
ATOM      4  C   UNL     1      97.799 -11.895  24.232  1.00  0.00     0.030 A 
ATOM      5  C   UNL     1      97.500  -9.565  25.737  1.00  0.00     0.049 A 
ATOM      6  C   UNL     1      98.860 -11.423  25.004  1.00  0.00     0.049 A 
ENDROOT
BRANCH   1   7
ATOM      7  N   UNL     1      95.527 -11.675  23.439  1.00  0.00    -0.308 N 
ATOM      8  N   UNL     1      93.659 -12.827  22.716  1.00  0.00    -0.308 N 
ATOM      9  C   UNL     1      94.563 -12.635  23.789  1.00  0.00     0.323 C 
ATOM     10  H   UNL     1      93.832 -12.268  21.884  1.00  0.00     0.171 HD
ATOM     11  O   UNL     1      94.507 -13.224  24.863  1.00  0.00    -0.248 OA
ATOM     12  H   UNL     1      95.449 -11.270  22.510  1.00  0.00     0.171 HD
BRANCH   8  13
ATOM     13  C   UNL     1      92.561 -13.684  22.645  1.00  0.00     0.043 A 
ATOM     14  Cl  UNL     1      89.030 -16.487  22.397  1.00  0.00    -0.084 Cl
ATOM     15  C   UNL     1      90.366 -15.400  22.504  1.00  0.00     0.053 A 
ATOM     16  C   UNL     1      90.229 -14.138  23.084  1.00  0.00     0.076 A 
ATOM     17  C   UNL     1      91.600 -15.803  21.995  1.00  0.00     0.023 A 
ATOM     18  C   UNL     1      91.327 -13.281  23.155  1.00  0.00     0.040 A 
ATOM     19  C   UNL     1      92.698 -14.945  22.066  1.00  0.00     0.028 A 
BRANCH  16  20
ATOM     20  C   UNL     1      88.924 -13.668  23.639  1.00  0.00     0.417 C 
ATOM     21  F   UNL     1      88.334 -14.566  24.479  1.00  0.00    -0.166 F 
ATOM     22  F   UNL     1      89.024 -12.514  24.361  1.00  0.00    -0.166 F 
ATOM     23  F   UNL     1      88.003 -13.414  22.665  1.00  0.00    -0.166 F 
ENDBRANCH  16  20
ENDBRANCH   8  13
ENDBRANCH   1   7
BRANCH   2  24
ATOM     24  O   UNL     1      99.745  -9.797  26.512  1.00  0.00    -0.457 OA
BRANCH  24  25
ATOM     25  C   UNL     1     100.283  -8.565  26.182  1.00  0.00     0.131 A 
ATOM     26  C   UNL     1     100.526  -8.267  24.858  1.00  0.00     0.081 A 
ATOM     27  C   UNL     1     100.562  -7.661  27.185  1.00  0.00     0.067 A 
ATOM     28  C   UNL     1     101.063  -7.020  24.581  1.00  0.00     0.131 A 
ATOM     29  C   UNL     1     101.097  -6.441  26.804  1.00  0.00     0.116 A 
ATOM     30  N   UNL     1     101.356  -6.097  25.522  1.00  0.00    -0.251 NA
BRANCH  28  31
ATOM     31  C   UNL     1     101.347  -6.635  23.209  1.00  0.00     0.269 C 
ATOM     32  O   UNL     1     100.845  -5.604  22.724  1.00  0.00    -0.268 OA
ATOM     33  N   UNL     1     102.217  -7.457  22.484  1.00  0.00    -0.354 N 
ATOM     34  C   UNL     1     102.615  -7.196  21.120  1.00  0.00     0.143 C 
ATOM     35  H   UNL     1     102.620  -8.269  22.945  1.00  0.00     0.163 HD
ENDBRANCH  28  31
ENDBRANCH  24  25
ENDBRANCH   2  24
TORSDOF 6
ENDMDL
MODEL 2
REMARK VINA RESULT:    -7.168      1.623      2.792
REMARK INTER + INTRA:         -10.546
REMARK INTER:                  -9.484
REMARK INTRA:                  -1.062
REMARK UNBOUND:                -0.863
REMARK SMILES CNC(=O)c1cc(Oc2ccc(NC(=O)Nc3ccc(Cl)c(C(F)(F)F)c3)cc2)ccn1
REMARK SMILES IDX 12 1 9 2 11 3 28 4 10 5 29 6 13 7 16 8 14 9 15 11 17 13
REMARK SMILES IDX 21 14 20 15 22 16 19 17 27 18 18 19 23 20 24 21 25 22 26 23
REMARK SMILES IDX 8 24 7 25 6 26 30 27 5 28 31 29 32 30 3 31 4 32 2 33 1 34
REMARK H PARENT 16 10 13 12 2 35
REMARK Flexibility Score: inf
ROOT
ATOM      1  C   UNL     1      96.700 -11.183  23.938  1.00  0.00     0.043 A 
ATOM      2  C   UNL     1      99.432 -10.769  23.743  1.00  0.00     0.127 A 
ATOM      3  C   UNL     1      97.227 -10.680  22.760  1.00  0.00     0.030 A 
ATOM      4  C   UNL     1      97.511 -11.485  25.020  1.00  0.00     0.030 A 
ATOM      5  C   UNL     1      98.603 -10.471  22.661  1.00  0.00     0.049 A 
ATOM      6  C   UNL     1      98.886 -11.276  24.922  1.00  0.00     0.049 A 
ENDROOT
BRANCH   1   7
ATOM      7  N   UNL     1      95.305 -11.394  24.037  1.00  0.00    -0.308 N 
ATOM      8  N   UNL     1      93.192 -12.316  23.885  1.00  0.00    -0.308 N 
ATOM      9  C   UNL     1      94.564 -12.500  23.588  1.00  0.00     0.323 C 
ATOM     10  H   UNL     1      92.952 -11.448  24.358  1.00  0.00     0.171 HD
ATOM     11  O   UNL     1      95.030 -13.483  23.022  1.00  0.00    -0.248 OA
ATOM     12  H   UNL     1      94.781 -10.650  24.491  1.00  0.00     0.171 HD
BRANCH   8  13
ATOM     13  C   UNL     1      92.120 -13.166  23.613  1.00  0.00     0.043 A 
ATOM     14  Cl  UNL     1      88.667 -15.946  22.757  1.00  0.00    -0.084 Cl
ATOM     15  C   UNL     1      89.978 -14.867  23.069  1.00  0.00     0.053 A 
ATOM     16  C   UNL     1      90.106 -13.664  22.375  1.00  0.00     0.076 A 
ATOM     17  C   UNL     1      90.920 -15.220  24.033  1.00  0.00     0.023 A 
ATOM     18  C   UNL     1      91.177 -12.813  22.647  1.00  0.00     0.040 A 
ATOM     19  C   UNL     1      91.992 -14.370  24.306  1.00  0.00     0.028 A 
BRANCH  16  20
ATOM     20  C   UNL     1      89.118 -13.250  21.332  1.00  0.00     0.417 C 
ATOM     21  F   UNL     1      89.467 -12.107  20.675  1.00  0.00    -0.166 F 
ATOM     22  F   UNL     1      88.934 -14.185  20.356  1.00  0.00    -0.166 F 
ATOM     23  F   UNL     1      87.879 -13.012  21.853  1.00  0.00    -0.166 F 
ENDBRANCH  16  20
ENDBRANCH   8  13
ENDBRANCH   1   7
BRANCH   2  24
ATOM     24  O   UNL     1     100.774 -10.565  23.647  1.00  0.00    -0.457 OA
BRANCH  24  25
ATOM     25  C   UNL     1     101.221  -9.259  23.537  1.00  0.00     0.131 A 
ATOM     26  C   UNL     1     101.013  -8.385  24.584  1.00  0.00     0.081 A 
ATOM     27  C   UNL     1     101.865  -8.861  22.385  1.00  0.00     0.067 A 
ATOM     28  C   UNL     1     101.480  -7.090  24.425  1.00  0.00     0.131 A 
ATOM     29  C   UNL     1     102.294  -7.545  22.325  1.00  0.00     0.116 A 
ATOM     30  N   UNL     1     102.117  -6.646  23.320  1.00  0.00    -0.251 NA
BRANCH  28  31
ATOM     31  C   UNL     1     101.298  -6.113  25.484  1.00  0.00     0.269 C 
ATOM     32  O   UNL     1     101.439  -4.897  25.256  1.00  0.00    -0.268 OA
ATOM     33  N   UNL     1     100.940  -6.601  26.747  1.00  0.00    -0.354 N 
ATOM     34  C   UNL     1     100.700  -5.755  27.894  1.00  0.00     0.143 C 
ATOM     35  H   UNL     1     100.809  -7.602  26.864  1.00  0.00     0.163 HD
ENDBRANCH  28  31
ENDBRANCH  24  25
ENDBRANCH   2  24
TORSDOF 6
ENDMDL
MODEL 3
REMARK VINA RESULT:    -7.116      1.135      2.173
REMARK INTER + INTRA:         -10.475
REMARK INTER:                  -9.521
REMARK INTRA:                  -0.954
REMARK UNBOUND:                -0.863
REMARK SMILES CNC(=O)c1cc(Oc2ccc(NC(=O)Nc3ccc(Cl)c(C(F)(F)F)c3)cc2)ccn1
REMARK SMILES IDX 12 1 9 2 11 3 28 4 10 5 29 6 13 7 16 8 14 9 15 11 17 13
REMARK SMILES IDX 21 14 20 15 22 16 19 17 27 18 18 19 23 20 24 21 25 22 26 23
REMARK SMILES IDX 8 24 7 25 6 26 30 27 5 28 31 29 32 30 3 31 4 32 2 33 1 34
REMARK H PARENT 16 10 13 12 2 35
REMARK Flexibility Score: inf
ROOT
ATOM      1  C   UNL     1      96.679 -11.403  24.129  1.00  0.00     0.043 A 
ATOM      2  C   UNL     1      98.867 -10.617  25.634  1.00  0.00     0.127 A 
ATOM      3  C   UNL     1      97.853 -12.134  24.051  1.00  0.00     0.030 A 
ATOM      4  C   UNL     1      96.575 -10.288  24.944  1.00  0.00     0.030 A 
ATOM      5  C   UNL     1      98.955 -11.738  24.809  1.00  0.00     0.049 A 
ATOM      6  C   UNL     1      97.677  -9.892  25.702  1.00  0.00     0.049 A 
ENDROOT
BRANCH   1   7
ATOM      7  N   UNL     1      95.562 -11.806  23.359  1.00  0.00    -0.308 N 
ATOM      8  N   UNL     1      93.630 -12.854  22.646  1.00  0.00    -0.308 N 
ATOM      9  C   UNL     1      94.574 -12.747  23.696  1.00  0.00     0.323 C 
ATOM     10  H   UNL     1      93.797 -12.262  21.836  1.00  0.00     0.171 HD
ATOM     11  O   UNL     1      94.530 -13.384  24.742  1.00  0.00    -0.248 OA
ATOM     12  H   UNL     1      95.469 -11.353  22.453  1.00  0.00     0.171 HD
BRANCH   8  13
ATOM     13  C   UNL     1      92.500 -13.667  22.571  1.00  0.00     0.043 A 
ATOM     14  Cl  UNL     1      88.862 -16.328  22.309  1.00  0.00    -0.084 Cl
ATOM     15  C   UNL     1      90.240 -15.296  22.422  1.00  0.00     0.053 A 
ATOM     16  C   UNL     1      90.169 -14.061  23.068  1.00  0.00     0.076 A 
ATOM     17  C   UNL     1      91.440 -15.716  21.851  1.00  0.00     0.023 A 
ATOM     18  C   UNL     1      91.299 -13.247  23.143  1.00  0.00     0.040 A 
ATOM     19  C   UNL     1      92.571 -14.902  21.925  1.00  0.00     0.028 A 
BRANCH  16  20
ATOM     20  C   UNL     1      88.900 -13.574  23.692  1.00  0.00     0.417 C 
ATOM     21  F   UNL     1      88.313 -14.488  24.517  1.00  0.00    -0.166 F 
ATOM     22  F   UNL     1      89.065 -12.454  24.455  1.00  0.00    -0.166 F 
ATOM     23  F   UNL     1      87.953 -13.252  22.764  1.00  0.00    -0.166 F 
ENDBRANCH  16  20
ENDBRANCH   8  13
ENDBRANCH   1   7
BRANCH   2  24
ATOM     24  O   UNL     1      99.942 -10.230  26.373  1.00  0.00    -0.457 OA
BRANCH  24  25
ATOM     25  C   UNL     1     100.801  -9.296  25.819  1.00  0.00     0.131 A 
ATOM     26  C   UNL     1     100.615  -7.959  26.100  1.00  0.00     0.081 A 
ATOM     27  C   UNL     1     101.826  -9.723  25.002  1.00  0.00     0.067 A 
ATOM     28  C   UNL     1     101.503  -7.064  25.523  1.00  0.00     0.131 A 
ATOM     29  C   UNL     1     102.659  -8.750  24.474  1.00  0.00     0.116 A 
ATOM     30  N   UNL     1     102.523  -7.426  24.714  1.00  0.00    -0.251 NA
BRANCH  28  31
ATOM     31  C   UNL     1     101.370  -5.639  25.772  1.00  0.00     0.269 C 
ATOM     32  O   UNL     1     101.721  -4.811  24.912  1.00  0.00    -0.268 OA
ATOM     33  N   UNL     1     100.815  -5.256  26.999  1.00  0.00    -0.354 N 
ATOM     34  C   UNL     1     100.597  -3.881  27.384  1.00  0.00     0.143 C 
ATOM     35  H   UNL     1     100.519  -5.980  27.648  1.00  0.00     0.163 HD
ENDBRANCH  28  31
ENDBRANCH  24  25
ENDBRANCH   2  24
TORSDOF 6
ENDMDL
MODEL 4
REMARK VINA RESULT:    -6.827     19.432     22.298
REMARK INTER + INTRA:         -10.085
REMARK INTER:                 -10.041
REMARK INTRA:                  -0.044
REMARK UNBOUND:                -0.863
REMARK SMILES CNC(=O)c1cc(Oc2ccc(NC(=O)Nc3ccc(Cl)c(C(F)(F)F)c3)cc2)ccn1
REMARK SMILES IDX 12 1 9 2 11 3 28 4 10 5 29 6 13 7 16 8 14 9 15 11 17 13
REMARK SMILES IDX 21 14 20 15 22 16 19 17 27 18 18 19 23 20 24 21 25 22 26 23
REMARK SMILES IDX 8 24 7 25 6 26 30 27 5 28 31 29 32 30 3 31 4 32 2 33 1 34
REMARK H PARENT 16 10 13 12 2 35
REMARK Flexibility Score: inf
ROOT
ATOM      1  C   UNL     1      95.494   9.832  20.077  1.00  0.00     0.043 A 
ATOM      2  C   UNL     1      96.454   9.947  17.482  1.00  0.00     0.127 A 
ATOM      3  C   UNL     1      94.697   9.379  19.039  1.00  0.00     0.030 A 
ATOM      4  C   UNL     1      96.761  10.341  19.845  1.00  0.00     0.030 A 
ATOM      5  C   UNL     1      95.180   9.436  17.732  1.00  0.00     0.049 A 
ATOM      6  C   UNL     1      97.245  10.399  18.539  1.00  0.00     0.049 A 
ENDROOT
BRANCH   1   7
ATOM      7  N   UNL     1      95.003   9.773  21.403  1.00  0.00    -0.308 N 
ATOM      8  N   UNL     1      93.771   9.239  23.283  1.00  0.00    -0.308 N 
ATOM      9  C   UNL     1      93.933   9.008  21.895  1.00  0.00     0.323 C 
ATOM     10  H   UNL     1      94.423   9.897  23.703  1.00  0.00     0.171 HD
ATOM     11  O   UNL     1      93.238   8.250  21.228  1.00  0.00    -0.248 OA
ATOM     12  H   UNL     1      95.491  10.360  22.076  1.00  0.00     0.171 HD
BRANCH   8  13
ATOM     13  C   UNL     1      92.832   8.686  24.154  1.00  0.00     0.043 A 
ATOM     14  Cl  UNL     1      89.808   6.918  27.003  1.00  0.00    -0.084 Cl
ATOM     15  C   UNL     1      90.955   7.580  25.896  1.00  0.00     0.053 A 
ATOM     16  C   UNL     1      91.034   7.129  24.578  1.00  0.00     0.076 A 
ATOM     17  C   UNL     1      91.815   8.583  26.343  1.00  0.00     0.023 A 
ATOM     18  C   UNL     1      91.972   7.682  23.707  1.00  0.00     0.040 A 
ATOM     19  C   UNL     1      92.754   9.136  25.472  1.00  0.00     0.028 A 
BRANCH  16  20
ATOM     20  C   UNL     1      90.132   6.055  24.061  1.00  0.00     0.417 C 
ATOM     21  F   UNL     1      90.259   5.836  22.721  1.00  0.00    -0.166 F 
ATOM     22  F   UNL     1      90.344   4.840  24.645  1.00  0.00    -0.166 F 
ATOM     23  F   UNL     1      88.813   6.337  24.267  1.00  0.00    -0.166 F 
ENDBRANCH  16  20
ENDBRANCH   8  13
ENDBRANCH   1   7
BRANCH   2  24
ATOM     24  O   UNL     1      96.925  10.004  16.206  1.00  0.00    -0.457 OA
BRANCH  24  25
ATOM     25  C   UNL     1      97.326  11.238  15.723  1.00  0.00     0.131 A 
ATOM     26  C   UNL     1      96.382  12.223  15.522  1.00  0.00     0.081 A 
ATOM     27  C   UNL     1      98.660  11.456  15.454  1.00  0.00     0.067 A 
ATOM     28  C   UNL     1      96.834  13.440  15.039  1.00  0.00     0.131 A 
ATOM     29  C   UNL     1      99.011  12.707  14.973  1.00  0.00     0.116 A 
ATOM     30  N   UNL     1      98.128  13.709  14.758  1.00  0.00    -0.251 NA
BRANCH  28  31
ATOM     31  C   UNL     1      95.898  14.526  14.803  1.00  0.00     0.269 C 
ATOM     32  O   UNL     1      94.685  14.295  14.649  1.00  0.00    -0.268 OA
ATOM     33  N   UNL     1      96.422  15.824  14.782  1.00  0.00    -0.354 N 
ATOM     34  C   UNL     1      95.619  17.009  14.583  1.00  0.00     0.143 C 
ATOM     35  H   UNL     1      97.417  15.952  14.945  1.00  0.00     0.163 HD
ENDBRANCH  28  31
ENDBRANCH  24  25
ENDBRANCH   2  24
TORSDOF 6
ENDMDL
MODEL 5
REMARK VINA RESULT:    -6.823      2.079      2.702
REMARK INTER + INTRA:         -10.079
REMARK INTER:                  -9.401
REMARK INTRA:                  -0.678
REMARK UNBOUND:                -0.863
REMARK SMILES CNC(=O)c1cc(Oc2ccc(NC(=O)Nc3ccc(Cl)c(C(F)(F)F)c3)cc2)ccn1
REMARK SMILES IDX 12 1 9 2 11 3 28 4 10 5 29 6 13 7 16 8 14 9 15 11 17 13
REMARK SMILES IDX 21 14 20 15 22 16 19 17 27 18 18 19 23 20 24 21 25 22 26 23
REMARK SMILES IDX 8 24 7 25 6 26 30 27 5 28 31 29 32 30 3 31 4 32 2 33 1 34
REMARK H PARENT 16 10 13 12 2 35
REMARK Flexibility Score: inf
ROOT
ATOM      1  C   UNL     1      97.127 -11.745  22.564  1.00  0.00     0.043 A 
ATOM      2  C   UNL     1      99.457 -10.292  22.923  1.00  0.00     0.127 A 
ATOM      3  C   UNL     1      97.046 -10.383  22.800  1.00  0.00     0.030 A 
ATOM      4  C   UNL     1      98.348 -12.396  22.502  1.00  0.00     0.030 A 
ATOM      5  C   UNL     1      98.220  -9.651  22.981  1.00  0.00     0.049 A 
ATOM      6  C   UNL     1      99.521 -11.665  22.684  1.00  0.00     0.049 A 
ENDROOT
BRANCH   1   7
ATOM      7  N   UNL     1      95.936 -12.487  22.380  1.00  0.00    -0.308 N 
ATOM      8  N   UNL     1      93.810 -13.355  22.635  1.00  0.00    -0.308 N 
ATOM      9  C   UNL     1      94.771 -12.460  23.165  1.00  0.00     0.323 C 
ATOM     10  H   UNL     1      94.091 -13.866  21.801  1.00  0.00     0.171 HD
ATOM     11  O   UNL     1      94.605 -11.767  24.163  1.00  0.00    -0.248 OA
ATOM     12  H   UNL     1      95.931 -13.114  21.579  1.00  0.00     0.171 HD
BRANCH   8  13
ATOM     13  C   UNL     1      92.527 -13.634  23.106  1.00  0.00     0.043 A 
ATOM     14  Cl  UNL     1      88.390 -14.549  24.665  1.00  0.00    -0.084 Cl
ATOM     15  C   UNL     1      89.962 -14.190  24.049  1.00  0.00     0.053 A 
ATOM     16  C   UNL     1      90.135 -13.667  22.768  1.00  0.00     0.076 A 
ATOM     17  C   UNL     1      91.071 -14.435  24.859  1.00  0.00     0.023 A 
ATOM     18  C   UNL     1      91.418 -13.388  22.296  1.00  0.00     0.040 A 
ATOM     19  C   UNL     1      92.354 -14.157  24.387  1.00  0.00     0.028 A 
BRANCH  16  20
ATOM     20  C   UNL     1      88.973 -13.392  21.868  1.00  0.00     0.417 C 
ATOM     21  F   UNL     1      87.957 -12.719  22.482  1.00  0.00    -0.166 F 
ATOM     22  F   UNL     1      89.296 -12.639  20.778  1.00  0.00    -0.166 F 
ATOM     23  F   UNL     1      88.414 -14.535  21.374  1.00  0.00    -0.166 F 
ENDBRANCH  16  20
ENDBRANCH   8  13
ENDBRANCH   1   7
BRANCH   2  24
ATOM     24  O   UNL     1     100.603  -9.578  23.101  1.00  0.00    -0.457 OA
BRANCH  24  25
ATOM     25  C   UNL     1     100.808  -8.987  24.336  1.00  0.00     0.131 A 
ATOM     26  C   UNL     1     100.870  -7.612  24.423  1.00  0.00     0.081 A 
ATOM     27  C   UNL     1     100.942  -9.785  25.451  1.00  0.00     0.067 A 
ATOM     28  C   UNL     1     101.075  -7.070  25.682  1.00  0.00     0.131 A 
ATOM     29  C   UNL     1     101.144  -9.146  26.664  1.00  0.00     0.116 A 
ATOM     30  N   UNL     1     101.215  -7.803  26.808  1.00  0.00    -0.251 NA
BRANCH  28  31
ATOM     31  C   UNL     1     101.153  -5.629  25.853  1.00  0.00     0.269 C 
ATOM     32  O   UNL     1     101.582  -4.904  24.937  1.00  0.00    -0.268 OA
ATOM     33  N   UNL     1     100.705  -5.109  27.073  1.00  0.00    -0.354 N 
ATOM     34  C   UNL     1     100.696  -3.698  27.387  1.00  0.00     0.143 C 
ATOM     35  H   UNL     1     100.336  -5.749  27.772  1.00  0.00     0.163 HD
ENDBRANCH  28  31
ENDBRANCH  24  25
ENDBRANCH   2  24
TORSDOF 6
ENDMDL
MODEL 6
REMARK VINA RESULT:    -6.802     18.281     21.531
REMARK INTER + INTRA:         -10.051
REMARK INTER:                 -10.091
REMARK INTRA:                   0.040
REMARK UNBOUND:                -0.863
REMARK SMILES CNC(=O)c1cc(Oc2ccc(NC(=O)Nc3ccc(Cl)c(C(F)(F)F)c3)cc2)ccn1
REMARK SMILES IDX 12 1 9 2 11 3 28 4 10 5 29 6 13 7 16 8 14 9 15 11 17 13
REMARK SMILES IDX 21 14 20 15 22 16 19 17 27 18 18 19 23 20 24 21 25 22 26 23
REMARK SMILES IDX 8 24 7 25 6 26 30 27 5 28 31 29 32 30 3 31 4 32 2 33 1 34
REMARK H PARENT 16 10 13 12 2 35
REMARK Flexibility Score: inf
ROOT
ATOM      1  C   UNL     1      94.756   9.122  18.189  1.00  0.00     0.043 A 
ATOM      2  C   UNL     1      94.152   8.774  15.509  1.00  0.00     0.127 A 
ATOM      3  C   UNL     1      95.787   9.020  17.270  1.00  0.00     0.030 A 
ATOM      4  C   UNL     1      93.430   9.055  17.797  1.00  0.00     0.030 A 
ATOM      5  C   UNL     1      95.483   8.845  15.920  1.00  0.00     0.049 A 
ATOM      6  C   UNL     1      93.125   8.879  16.447  1.00  0.00     0.049 A 
ENDROOT
BRANCH   1   7
ATOM      7  N   UNL     1      95.065   9.299  19.559  1.00  0.00    -0.308 N 
ATOM      8  N   UNL     1      94.965   9.295  21.867  1.00  0.00    -0.308 N 
ATOM      9  C   UNL     1      94.288   8.944  20.673  1.00  0.00     0.323 C 
ATOM     10  H   UNL     1      95.874   9.736  21.749  1.00  0.00     0.171 HD
ATOM     11  O   UNL     1      93.186   8.408  20.627  1.00  0.00    -0.248 OA
ATOM     12  H   UNL     1      95.962   9.739  19.751  1.00  0.00     0.171 HD
BRANCH   8  13
ATOM     13  C   UNL     1      94.549   9.121  23.187  1.00  0.00     0.043 A 
ATOM     14  Cl  UNL     1      93.239   8.567  27.472  1.00  0.00    -0.084 Cl
ATOM     15  C   UNL     1      93.718   8.772  25.826  1.00  0.00     0.053 A 
ATOM     16  C   UNL     1      92.849   8.475  24.777  1.00  0.00     0.076 A 
ATOM     17  C   UNL     1      95.002   9.243  25.556  1.00  0.00     0.023 A 
ATOM     18  C   UNL     1      93.264   8.650  23.457  1.00  0.00     0.040 A 
ATOM     19  C   UNL     1      95.418   9.418  24.236  1.00  0.00     0.028 A 
BRANCH  16  20
ATOM     20  C   UNL     1      91.465   7.966  25.024  1.00  0.00     0.417 C 
ATOM     21  F   UNL     1      91.434   6.742  25.625  1.00  0.00    -0.166 F 
ATOM     22  F   UNL     1      90.722   8.780  25.829  1.00  0.00    -0.166 F 
ATOM     23  F   UNL     1      90.746   7.830  23.873  1.00  0.00    -0.166 F 
ENDBRANCH  16  20
ENDBRANCH   8  13
ENDBRANCH   1   7
BRANCH   2  24
ATOM     24  O   UNL     1      93.856   8.603  14.191  1.00  0.00    -0.457 OA
BRANCH  24  25
ATOM     25  C   UNL     1      92.870   7.686  13.867  1.00  0.00     0.131 A 
ATOM     26  C   UNL     1      92.929   6.416  14.400  1.00  0.00     0.081 A 
ATOM     27  C   UNL     1      91.850   8.064  13.021  1.00  0.00     0.067 A 
ATOM     28  C   UNL     1      91.918   5.536  14.047  1.00  0.00     0.131 A 
ATOM     29  C   UNL     1      90.887   7.111  12.728  1.00  0.00     0.116 A 
ATOM     30  N   UNL     1      90.896   5.852  13.222  1.00  0.00    -0.251 NA
BRANCH  28  31
ATOM     31  C   UNL     1      91.913   4.181  14.568  1.00  0.00     0.269 C 
ATOM     32  O   UNL     1      92.019   3.206  13.801  1.00  0.00    -0.268 OA
ATOM     33  N   UNL     1      91.808   4.033  15.957  1.00  0.00    -0.354 N 
ATOM     34  C   UNL     1      91.812   2.754  16.628  1.00  0.00     0.143 C 
ATOM     35  H   UNL     1      91.755   4.868  16.534  1.00  0.00     0.163 HD
ENDBRANCH  28  31
ENDBRANCH  24  25
ENDBRANCH   2  24
TORSDOF 6
ENDMDL
MODEL 7
REMARK VINA RESULT:    -6.728      1.917      2.451
REMARK INTER + INTRA:          -9.951
REMARK INTER:                  -9.031
REMARK INTRA:                  -0.920
REMARK UNBOUND:                -0.863
REMARK SMILES CNC(=O)c1cc(Oc2ccc(NC(=O)Nc3ccc(Cl)c(C(F)(F)F)c3)cc2)ccn1
REMARK SMILES IDX 12 1 9 2 11 3 28 4 10 5 29 6 13 7 16 8 14 9 15 11 17 13
REMARK SMILES IDX 21 14 20 15 22 16 19 17 27 18 18 19 23 20 24 21 25 22 26 23
REMARK SMILES IDX 8 24 7 25 6 26 30 27 5 28 31 29 32 30 3 31 4 32 2 33 1 34
REMARK H PARENT 16 10 13 12 2 35
REMARK Flexibility Score: inf
ROOT
ATOM      1  C   UNL     1      96.642 -11.147  24.010  1.00  0.00     0.043 A 
ATOM      2  C   UNL     1      99.357 -10.656  23.773  1.00  0.00     0.127 A 
ATOM      3  C   UNL     1      97.456 -11.294  25.120  1.00  0.00     0.030 A 
ATOM      4  C   UNL     1      97.156 -10.758  22.784  1.00  0.00     0.030 A 
ATOM      5  C   UNL     1      98.824 -11.047  25.001  1.00  0.00     0.049 A 
ATOM      6  C   UNL     1      98.523 -10.511  22.664  1.00  0.00     0.049 A 
ENDROOT
BRANCH   1   7
ATOM      7  N   UNL     1      95.254 -11.398  24.131  1.00  0.00    -0.308 N 
ATOM      8  N   UNL     1      93.157 -12.352  23.964  1.00  0.00    -0.308 N 
ATOM      9  C   UNL     1      94.523 -12.479  23.613  1.00  0.00     0.323 C 
ATOM     10  H   UNL     1      92.914 -11.531  24.514  1.00  0.00     0.171 HD
ATOM     11  O   UNL     1      94.992 -13.401  22.954  1.00  0.00    -0.248 OA
ATOM     12  H   UNL     1      94.730 -10.705  24.660  1.00  0.00     0.171 HD
BRANCH   8  13
ATOM     13  C   UNL     1      92.095 -13.201  23.652  1.00  0.00     0.043 A 
ATOM     14  Cl  UNL     1      88.674 -15.979  22.671  1.00  0.00    -0.084 Cl
ATOM     15  C   UNL     1      89.972 -14.900  23.031  1.00  0.00     0.053 A 
ATOM     16  C   UNL     1      90.095 -13.672  22.382  1.00  0.00     0.076 A 
ATOM     17  C   UNL     1      90.911 -15.280  23.990  1.00  0.00     0.023 A 
ATOM     18  C   UNL     1      91.156 -12.822  22.693  1.00  0.00     0.040 A 
ATOM     19  C   UNL     1      91.973 -14.430  24.301  1.00  0.00     0.028 A 
BRANCH  16  20
ATOM     20  C   UNL     1      89.111 -13.229  21.347  1.00  0.00     0.417 C 
ATOM     21  F   UNL     1      87.876 -12.950  21.855  1.00  0.00    -0.166 F 
ATOM     22  F   UNL     1      89.491 -12.099  20.684  1.00  0.00    -0.166 F 
ATOM     23  F   UNL     1      88.909 -14.172  20.382  1.00  0.00    -0.166 F 
ENDBRANCH  16  20
ENDBRANCH   8  13
ENDBRANCH   1   7
BRANCH   2  24
ATOM     24  O   UNL     1     100.692 -10.415  23.657  1.00  0.00    -0.457 OA
BRANCH  24  25
ATOM     25  C   UNL     1     101.086  -9.143  23.279  1.00  0.00     0.131 A 
ATOM     26  C   UNL     1     101.869  -8.986  22.155  1.00  0.00     0.081 A 
ATOM     27  C   UNL     1     100.685  -8.061  24.033  1.00  0.00     0.067 A 
ATOM     28  C   UNL     1     102.236  -7.693  21.818  1.00  0.00     0.131 A 
ATOM     29  C   UNL     1     101.104  -6.809  23.613  1.00  0.00     0.116 A 
ATOM     30  N   UNL     1     101.872  -6.597  22.520  1.00  0.00    -0.251 NA
BRANCH  28  31
ATOM     31  C   UNL     1     103.060  -7.447  20.648  1.00  0.00     0.269 C 
ATOM     32  O   UNL     1     102.806  -8.007  19.565  1.00  0.00    -0.268 OA
ATOM     33  N   UNL     1     104.122  -6.546  20.794  1.00  0.00    -0.354 N 
ATOM     34  C   UNL     1     105.015  -6.181  19.719  1.00  0.00     0.143 C 
ATOM     35  H   UNL     1     104.260  -6.097  21.695  1.00  0.00     0.163 HD
ENDBRANCH  28  31
ENDBRANCH  24  25
ENDBRANCH   2  24
TORSDOF 6
ENDMDL
MODEL 8
REMARK VINA RESULT:    -6.712     19.946     22.184
REMARK INTER + INTRA:          -9.930
REMARK INTER:                  -9.596
REMARK INTRA:                  -0.334
REMARK UNBOUND:                -0.863
REMARK SMILES CNC(=O)c1cc(Oc2ccc(NC(=O)Nc3ccc(Cl)c(C(F)(F)F)c3)cc2)ccn1
REMARK SMILES IDX 12 1 9 2 11 3 28 4 10 5 29 6 13 7 16 8 14 9 15 11 17 13
REMARK SMILES IDX 21 14 20 15 22 16 19 17 27 18 18 19 23 20 24 21 25 22 26 23
REMARK SMILES IDX 8 24 7 25 6 26 30 27 5 28 31 29 32 30 3 31 4 32 2 33 1 34
REMARK H PARENT 16 10 13 12 2 35
REMARK Flexibility Score: inf
ROOT
ATOM      1  C   UNL     1      94.724   9.030  17.760  1.00  0.00     0.043 A 
ATOM      2  C   UNL     1      93.960   8.601  15.133  1.00  0.00     0.127 A 
ATOM      3  C   UNL     1      95.599   8.393  16.895  1.00  0.00     0.030 A 
ATOM      4  C   UNL     1      93.476   9.458  17.340  1.00  0.00     0.030 A 
ATOM      5  C   UNL     1      95.214   8.177  15.572  1.00  0.00     0.049 A 
ATOM      6  C   UNL     1      93.090   9.242  16.017  1.00  0.00     0.049 A 
ENDROOT
BRANCH   1   7
ATOM      7  N   UNL     1      95.116   9.249  19.102  1.00  0.00    -0.308 N 
ATOM      8  N   UNL     1      95.163   9.299  21.412  1.00  0.00    -0.308 N 
ATOM      9  C   UNL     1      94.421   8.901  20.273  1.00  0.00     0.323 C 
ATOM     10  H   UNL     1      96.051   9.759  21.225  1.00  0.00     0.171 HD
ATOM     11  O   UNL     1      93.333   8.336  20.310  1.00  0.00    -0.248 OA
ATOM     12  H   UNL     1      96.011   9.715  19.226  1.00  0.00     0.171 HD
BRANCH   8  13
ATOM     13  C   UNL     1      94.838   9.146  22.759  1.00  0.00     0.043 A 
ATOM     14  Cl  UNL     1      93.820   8.666  27.132  1.00  0.00    -0.084 Cl
ATOM     15  C   UNL     1      94.187   8.841  25.455  1.00  0.00     0.053 A 
ATOM     16  C   UNL     1      93.287   8.435  24.470  1.00  0.00     0.076 A 
ATOM     17  C   UNL     1      95.413   9.399  25.092  1.00  0.00     0.023 A 
ATOM     18  C   UNL     1      93.611   8.588  23.122  1.00  0.00     0.040 A 
ATOM     19  C   UNL     1      95.738   9.552  23.744  1.00  0.00     0.028 A 
BRANCH  16  20
ATOM     20  C   UNL     1      91.964   7.830  24.817  1.00  0.00     0.417 C 
ATOM     21  F   UNL     1      91.237   8.580  25.694  1.00  0.00    -0.166 F 
ATOM     22  F   UNL     1      91.149   7.649  23.737  1.00  0.00    -0.166 F 
ATOM     23  F   UNL     1      92.088   6.601  25.396  1.00  0.00    -0.166 F 
ENDBRANCH  16  20
ENDBRANCH   8  13
ENDBRANCH   1   7
BRANCH   2  24
ATOM     24  O   UNL     1      93.584   8.390  13.842  1.00  0.00    -0.457 OA
BRANCH  24  25
ATOM     25  C   UNL     1      92.626   7.419  13.601  1.00  0.00     0.131 A 
ATOM     26  C   UNL     1      91.429   7.782  13.022  1.00  0.00     0.081 A 
ATOM     27  C   UNL     1      92.892   6.110  13.943  1.00  0.00     0.067 A 
ATOM     28  C   UNL     1      90.505   6.773  12.800  1.00  0.00     0.131 A 
ATOM     29  C   UNL     1      91.903   5.176  13.681  1.00  0.00     0.116 A 
ATOM     30  N   UNL     1      90.712   5.476  13.115  1.00  0.00    -0.251 NA
BRANCH  28  31
ATOM     31  C   UNL     1      89.221   7.078  12.194  1.00  0.00     0.269 C 
ATOM     32  O   UNL     1      89.108   8.021  11.389  1.00  0.00    -0.268 OA
ATOM     33  N   UNL     1      88.142   6.255  12.540  1.00  0.00    -0.354 N 
ATOM     34  C   UNL     1      86.809   6.415  12.004  1.00  0.00     0.143 C 
ATOM     35  H   UNL     1      88.303   5.481  13.179  1.00  0.00     0.163 HD
ENDBRANCH  28  31
ENDBRANCH  24  25
ENDBRANCH   2  24
TORSDOF 6
ENDMDL
MODEL 9
REMARK VINA RESULT:    -6.652      5.900     11.397
REMARK INTER + INTRA:          -9.849
REMARK INTER:                  -8.975
REMARK INTRA:                  -0.874
REMARK UNBOUND:                -0.863
REMARK SMILES CNC(=O)c1cc(Oc2ccc(NC(=O)Nc3ccc(Cl)c(C(F)(F)F)c3)cc2)ccn1
REMARK SMILES IDX 12 1 9 2 11 3 28 4 10 5 29 6 13 7 16 8 14 9 15 11 17 13
REMARK SMILES IDX 21 14 20 15 22 16 19 17 27 18 18 19 23 20 24 21 25 22 26 23
REMARK SMILES IDX 8 24 7 25 6 26 30 27 5 28 31 29 32 30 3 31 4 32 2 33 1 34
REMARK H PARENT 16 10 13 12 2 35
REMARK Flexibility Score: inf
ROOT
ATOM      1  C   UNL     1      96.121 -13.052  23.919  1.00  0.00     0.043 A 
ATOM      2  C   UNL     1      93.728 -14.441  23.799  1.00  0.00     0.127 A 
ATOM      3  C   UNL     1      95.695 -13.766  25.027  1.00  0.00     0.030 A 
ATOM      4  C   UNL     1      95.376 -13.019  22.752  1.00  0.00     0.030 A 
ATOM      5  C   UNL     1      94.490 -14.466  24.967  1.00  0.00     0.049 A 
ATOM      6  C   UNL     1      94.171 -13.718  22.691  1.00  0.00     0.049 A 
ENDROOT
BRANCH   1   7
ATOM      7  N   UNL     1      97.344 -12.343  23.981  1.00  0.00    -0.308 N 
ATOM      8  N   UNL     1      98.935 -10.707  24.337  1.00  0.00    -0.308 N 
ATOM      9  C   UNL     1      97.562 -11.036  24.446  1.00  0.00     0.323 C 
ATOM     10  H   UNL     1      99.537 -11.431  23.954  1.00  0.00     0.171 HD
ATOM     11  O   UNL     1      96.696 -10.285  24.883  1.00  0.00    -0.248 OA
ATOM     12  H   UNL     1      98.160 -12.849  23.646  1.00  0.00     0.171 HD
BRANCH   8  13
ATOM     13  C   UNL     1      99.575  -9.516  24.684  1.00  0.00     0.043 A 
ATOM     14  Cl  UNL     1     101.635  -5.669  25.843  1.00  0.00    -0.084 Cl
ATOM     15  C   UNL     1     100.855  -7.137  25.377  1.00  0.00     0.053 A 
ATOM     16  C   UNL     1     100.850  -7.565  24.049  1.00  0.00     0.076 A 
ATOM     17  C   UNL     1     100.220  -7.898  26.357  1.00  0.00     0.023 A 
ATOM     18  C   UNL     1     100.211  -8.755  23.703  1.00  0.00     0.040 A 
ATOM     19  C   UNL     1      99.580  -9.089  26.011  1.00  0.00     0.028 A 
BRANCH  16  20
ATOM     20  C   UNL     1     101.517  -6.777  22.968  1.00  0.00     0.417 C 
ATOM     21  F   UNL     1     101.707  -7.484  21.817  1.00  0.00    -0.166 F 
ATOM     22  F   UNL     1     100.819  -5.665  22.596  1.00  0.00    -0.166 F 
ATOM     23  F   UNL     1     102.753  -6.331  23.335  1.00  0.00    -0.166 F 
ENDBRANCH  16  20
ENDBRANCH   8  13
ENDBRANCH   1   7
BRANCH   2  24
ATOM     24  O   UNL     1      92.551 -15.123  23.740  1.00  0.00    -0.457 OA
BRANCH  24  25
ATOM     25  C   UNL     1      91.381 -14.385  23.695  1.00  0.00     0.131 A 
ATOM     26  C   UNL     1      90.637 -14.371  22.534  1.00  0.00     0.081 A 
ATOM     27  C   UNL     1      90.984 -13.682  24.812  1.00  0.00     0.067 A 
ATOM     28  C   UNL     1      89.473 -13.619  22.541  1.00  0.00     0.131 A 
ATOM     29  C   UNL     1      89.805 -12.960  24.717  1.00  0.00     0.116 A 
ATOM     30  N   UNL     1      89.036 -12.910  23.605  1.00  0.00    -0.251 NA
BRANCH  28  31
ATOM     31  C   UNL     1      88.637 -13.555  21.355  1.00  0.00     0.269 C 
ATOM     32  O   UNL     1      88.759 -14.399  20.447  1.00  0.00    -0.268 OA
ATOM     33  N   UNL     1      87.688 -12.527  21.299  1.00  0.00    -0.354 N 
ATOM     34  C   UNL     1      86.768 -12.345  20.200  1.00  0.00     0.143 C 
ATOM     35  H   UNL     1      87.614 -11.887  22.086  1.00  0.00     0.163 HD
ENDBRANCH  28  31
ENDBRANCH  24  25
ENDBRANCH   2  24
TORSDOF 6
ENDMDL
MODEL 10
REMARK VINA RESULT:    -6.594      4.164      5.051
REMARK INTER + INTRA:          -9.771
REMARK INTER:                  -8.722
REMARK INTRA:                  -1.049
REMARK UNBOUND:                -0.863
REMARK SMILES CNC(=O)c1cc(Oc2ccc(NC(=O)Nc3ccc(Cl)c(C(F)(F)F)c3)cc2)ccn1
REMARK SMILES IDX 12 1 9 2 11 3 28 4 10 5 29 6 13 7 16 8 14 9 15 11 17 13
REMARK SMILES IDX 21 14 20 15 22 16 19 17 27 18 18 19 23 20 24 21 25 22 26 23
REMARK SMILES IDX 8 24 7 25 6 26 30 27 5 28 31 29 32 30 3 31 4 32 2 33 1 34
REMARK H PARENT 16 10 13 12 2 35
REMARK Flexibility Score: inf
ROOT
ATOM      1  C   UNL     1      96.978 -12.204  21.586  1.00  0.00     0.043 A 
ATOM      2  C   UNL     1      99.345 -12.390  20.161  1.00  0.00     0.127 A 
ATOM      3  C   UNL     1      97.012 -11.773  20.271  1.00  0.00     0.030 A 
ATOM      4  C   UNL     1      98.101 -12.728  22.204  1.00  0.00     0.030 A 
ATOM      5  C   UNL     1      98.205 -11.865  19.553  1.00  0.00     0.049 A 
ATOM      6  C   UNL     1      99.294 -12.821  21.486  1.00  0.00     0.049 A 
ENDROOT
BRANCH   1   7
ATOM      7  N   UNL     1      95.768 -12.110  22.314  1.00  0.00    -0.308 N 
ATOM      8  N   UNL     1      93.682 -12.552  23.204  1.00  0.00    -0.308 N 
ATOM      9  C   UNL     1      94.705 -13.028  22.347  1.00  0.00     0.323 C 
ATOM     10  H   UNL     1      93.857 -11.655  23.649  1.00  0.00     0.171 HD
ATOM     11  O   UNL     1      94.663 -14.085  21.728  1.00  0.00    -0.248 OA
ATOM     12  H   UNL     1      95.663 -11.272  22.881  1.00  0.00     0.171 HD
BRANCH   8  13
ATOM     13  C   UNL     1      92.462 -13.150  23.517  1.00  0.00     0.043 A 
ATOM     14  Cl  UNL     1      88.527 -15.102  24.563  1.00  0.00    -0.084 Cl
ATOM     15  C   UNL     1      90.021 -14.346  24.144  1.00  0.00     0.053 A 
ATOM     16  C   UNL     1      90.150 -13.596  22.975  1.00  0.00     0.076 A 
ATOM     17  C   UNL     1      91.112 -14.499  24.998  1.00  0.00     0.023 A 
ATOM     18  C   UNL     1      91.370 -12.997  22.661  1.00  0.00     0.040 A 
ATOM     19  C   UNL     1      92.333 -13.901  24.685  1.00  0.00     0.028 A 
BRANCH  16  20
ATOM     20  C   UNL     1      89.005 -13.409  22.032  1.00  0.00     0.417 C 
ATOM     21  F   UNL     1      88.498 -14.581  21.552  1.00  0.00    -0.166 F 
ATOM     22  F   UNL     1      87.942 -12.759  22.588  1.00  0.00    -0.166 F 
ATOM     23  F   UNL     1      89.349 -12.679  20.932  1.00  0.00    -0.166 F 
ENDBRANCH  16  20
ENDBRANCH   8  13
ENDBRANCH   1   7
BRANCH   2  24
ATOM     24  O   UNL     1     100.509 -12.480  19.460  1.00  0.00    -0.457 OA
BRANCH  24  25
ATOM     25  C   UNL     1     101.199 -11.307  19.205  1.00  0.00     0.131 A 
ATOM     26  C   UNL     1     101.233 -10.811  17.919  1.00  0.00     0.081 A 
ATOM     27  C   UNL     1     101.836 -10.660  20.243  1.00  0.00     0.067 A 
ATOM     28  C   UNL     1     101.935  -9.633  17.716  1.00  0.00     0.131 A 
ATOM     29  C   UNL     1     102.511  -9.490  19.936  1.00  0.00     0.116 A 
ATOM     30  N   UNL     1     102.577  -8.958  18.695  1.00  0.00    -0.251 NA
BRANCH  28  31
ATOM     31  C   UNL     1     102.015  -9.049  16.389  1.00  0.00     0.269 C 
ATOM     32  O   UNL     1     102.563  -7.945  16.215  1.00  0.00    -0.268 OA
ATOM     33  N   UNL     1     101.475  -9.793  15.333  1.00  0.00    -0.354 N 
ATOM     34  C   UNL     1     101.499  -9.359  13.954  1.00  0.00     0.143 C 
ATOM     35  H   UNL     1     101.069 -10.702  15.533  1.00  0.00     0.163 HD
ENDBRANCH  28  31
ENDBRANCH  24  25
ENDBRANCH   2  24
TORSDOF 6
ENDMDL
MODEL 11
REMARK VINA RESULT:    -6.568      2.452      3.705
REMARK INTER + INTRA:          -9.736
REMARK INTER:                  -8.682
REMARK INTRA:                  -1.054
REMARK UNBOUND:                -0.863
REMARK SMILES CNC(=O)c1cc(Oc2ccc(NC(=O)Nc3ccc(Cl)c(C(F)(F)F)c3)cc2)ccn1
REMARK SMILES IDX 12 1 9 2 11 3 28 4 10 5 29 6 13 7 16 8 14 9 15 11 17 13
REMARK SMILES IDX 21 14 20 15 22 16 19 17 27 18 18 19 23 20 24 21 25 22 26 23
REMARK SMILES IDX 8 24 7 25 6 26 30 27 5 28 31 29 32 30 3 31 4 32 2 33 1 34
REMARK H PARENT 16 10 13 12 2 35
REMARK Flexibility Score: inf
ROOT
ATOM      1  C   UNL     1      97.105 -11.905  22.597  1.00  0.00     0.043 A 
ATOM      2  C   UNL     1      99.674 -11.938  21.563  1.00  0.00     0.127 A 
ATOM      3  C   UNL     1      97.339 -11.361  21.345  1.00  0.00     0.030 A 
ATOM      4  C   UNL     1      98.128 -12.467  23.342  1.00  0.00     0.030 A 
ATOM      5  C   UNL     1      98.633 -11.377  20.824  1.00  0.00     0.049 A 
ATOM      6  C   UNL     1      99.423 -12.483  22.822  1.00  0.00     0.049 A 
ENDROOT
BRANCH   1   7
ATOM      7  N   UNL     1      95.792 -11.888  23.124  1.00  0.00    -0.308 N 
ATOM      8  N   UNL     1      93.596 -12.418  23.605  1.00  0.00    -0.308 N 
ATOM      9  C   UNL     1      94.749 -12.796  22.876  1.00  0.00     0.323 C 
ATOM     10  H   UNL     1      93.685 -11.580  24.176  1.00  0.00     0.171 HD
ATOM     11  O   UNL     1      94.821 -13.773  22.139  1.00  0.00    -0.248 OA
ATOM     12  H   UNL     1      95.587 -11.122  23.761  1.00  0.00     0.171 HD
BRANCH   8  13
ATOM     13  C   UNL     1      92.347 -13.040  23.643  1.00  0.00     0.043 A 
ATOM     14  Cl  UNL     1      88.319 -15.071  23.800  1.00  0.00    -0.084 Cl
ATOM     15  C   UNL     1      89.852 -14.283  23.720  1.00  0.00     0.053 A 
ATOM     16  C   UNL     1      90.173 -13.429  22.665  1.00  0.00     0.076 A 
ATOM     17  C   UNL     1      90.778 -14.515  24.736  1.00  0.00     0.023 A 
ATOM     18  C   UNL     1      91.420 -12.807  22.626  1.00  0.00     0.040 A 
ATOM     19  C   UNL     1      92.026 -13.894  24.698  1.00  0.00     0.028 A 
BRANCH  16  20
ATOM     20  C   UNL     1      89.209 -13.155  21.556  1.00  0.00     0.417 C 
ATOM     21  F   UNL     1      87.974 -12.772  21.990  1.00  0.00    -0.166 F 
ATOM     22  F   UNL     1      89.618 -12.162  20.713  1.00  0.00    -0.166 F 
ATOM     23  F   UNL     1      89.000 -14.247  20.765  1.00  0.00    -0.166 F 
ENDBRANCH  16  20
ENDBRANCH   8  13
ENDBRANCH   1   7
BRANCH   2  24
ATOM     24  O   UNL     1     100.937 -11.953  21.055  1.00  0.00    -0.457 OA
BRANCH  24  25
ATOM     25  C   UNL     1     101.555 -10.735  20.830  1.00  0.00     0.131 A 
ATOM     26  C   UNL     1     101.729  -9.861  21.882  1.00  0.00     0.081 A 
ATOM     27  C   UNL     1     101.985 -10.423  19.557  1.00  0.00     0.067 A 
ATOM     28  C   UNL     1     102.354  -8.656  21.604  1.00  0.00     0.131 A 
ATOM     29  C   UNL     1     102.599  -9.193  19.383  1.00  0.00     0.116 A 
ATOM     30  N   UNL     1     102.795  -8.298  20.378  1.00  0.00    -0.251 NA
BRANCH  28  31
ATOM     31  C   UNL     1     102.572  -7.685  22.662  1.00  0.00     0.269 C 
ATOM     32  O   UNL     1     103.722  -7.440  23.070  1.00  0.00    -0.268 OA
ATOM     33  N   UNL     1     101.442  -7.034  23.171  1.00  0.00    -0.354 N 
ATOM     34  C   UNL     1     101.497  -6.027  24.206  1.00  0.00     0.143 C 
ATOM     35  H   UNL     1     100.532  -7.254  22.776  1.00  0.00     0.163 HD
ENDBRANCH  28  31
ENDBRANCH  24  25
ENDBRANCH   2  24
TORSDOF 6
ENDMDL
MODEL 12
REMARK VINA RESULT:    -6.477      1.974      2.441
REMARK INTER + INTRA:          -9.612
REMARK INTER:                  -8.985
REMARK INTRA:                  -0.628
REMARK UNBOUND:                -0.863
REMARK SMILES CNC(=O)c1cc(Oc2ccc(NC(=O)Nc3ccc(Cl)c(C(F)(F)F)c3)cc2)ccn1
REMARK SMILES IDX 12 1 9 2 11 3 28 4 10 5 29 6 13 7 16 8 14 9 15 11 17 13
REMARK SMILES IDX 21 14 20 15 22 16 19 17 27 18 18 19 23 20 24 21 25 22 26 23
REMARK SMILES IDX 8 24 7 25 6 26 30 27 5 28 31 29 32 30 3 31 4 32 2 33 1 34
REMARK H PARENT 16 10 13 12 2 35
REMARK Flexibility Score: inf
ROOT
ATOM      1  C   UNL     1      97.014 -12.400  22.379  1.00  0.00     0.043 A 
ATOM      2  C   UNL     1      99.313 -10.867  22.562  1.00  0.00     0.127 A 
ATOM      3  C   UNL     1      97.012 -11.112  21.871  1.00  0.00     0.030 A 
ATOM      4  C   UNL     1      98.142 -12.939  22.975  1.00  0.00     0.030 A 
ATOM      5  C   UNL     1      98.170 -10.339  21.964  1.00  0.00     0.049 A 
ATOM      6  C   UNL     1      99.300 -12.167  23.068  1.00  0.00     0.049 A 
ENDROOT
BRANCH   1   7
ATOM      7  N   UNL     1      95.839 -13.183  22.285  1.00  0.00    -0.308 N 
ATOM      8  N   UNL     1      93.697 -13.999  22.572  1.00  0.00    -0.308 N 
ATOM      9  C   UNL     1      94.616 -12.989  22.947  1.00  0.00     0.323 C 
ATOM     10  H   UNL     1      94.041 -14.689  21.908  1.00  0.00     0.171 HD
ATOM     11  O   UNL     1      94.372 -12.081  23.734  1.00  0.00    -0.248 OA
ATOM     12  H   UNL     1      95.896 -13.983  21.659  1.00  0.00     0.171 HD
BRANCH   8  13
ATOM     13  C   UNL     1      92.379 -14.178  22.993  1.00  0.00     0.043 A 
ATOM     14  Cl  UNL     1      88.128 -14.774  24.392  1.00  0.00    -0.084 Cl
ATOM     15  C   UNL     1      89.745 -14.535  23.838  1.00  0.00     0.053 A 
ATOM     16  C   UNL     1      90.007 -13.926  22.611  1.00  0.00     0.076 A 
ATOM     17  C   UNL     1      90.800 -14.966  24.642  1.00  0.00     0.023 A 
ATOM     18  C   UNL     1      91.324 -13.746  22.189  1.00  0.00     0.040 A 
ATOM     19  C   UNL     1      92.117 -14.787  24.220  1.00  0.00     0.028 A 
BRANCH  16  20
ATOM     20  C   UNL     1      88.905 -13.451  21.719  1.00  0.00     0.417 C 
ATOM     21  F   UNL     1      87.931 -12.760  22.378  1.00  0.00    -0.166 F 
ATOM     22  F   UNL     1      89.330 -12.616  20.727  1.00  0.00    -0.166 F 
ATOM     23  F   UNL     1      88.267 -14.478  21.087  1.00  0.00    -0.166 F 
ENDBRANCH  16  20
ENDBRANCH   8  13
ENDBRANCH   1   7
BRANCH   2  24
ATOM     24  O   UNL     1     100.443 -10.113  22.653  1.00  0.00    -0.457 OA
BRANCH  24  25
ATOM     25  C   UNL     1     100.533  -9.212  23.701  1.00  0.00     0.131 A 
ATOM     26  C   UNL     1     101.373  -8.125  23.585  1.00  0.00     0.081 A 
ATOM     27  C   UNL     1      99.780  -9.422  24.836  1.00  0.00     0.067 A 
ATOM     28  C   UNL     1     101.426  -7.252  24.660  1.00  0.00     0.131 A 
ATOM     29  C   UNL     1      99.904  -8.491  25.856  1.00  0.00     0.116 A 
ATOM     30  N   UNL     1     100.711  -7.408  25.796  1.00  0.00    -0.251 NA
BRANCH  28  31
ATOM     31  C   UNL     1     102.287  -6.084  24.611  1.00  0.00     0.269 C 
ATOM     32  O   UNL     1     101.802  -4.937  24.634  1.00  0.00    -0.268 OA
ATOM     33  N   UNL     1     103.668  -6.312  24.562  1.00  0.00    -0.354 N 
ATOM     34  C   UNL     1     104.654  -5.256  24.534  1.00  0.00     0.143 C 
ATOM     35  H   UNL     1     104.005  -7.271  24.577  1.00  0.00     0.163 HD
ENDBRANCH  28  31
ENDBRANCH  24  25
ENDBRANCH   2  24
TORSDOF 6
ENDMDL
MODEL 13
REMARK VINA RESULT:    -6.332     20.087     22.761
REMARK INTER + INTRA:          -9.416
REMARK INTER:                  -8.434
REMARK INTRA:                  -0.982
REMARK UNBOUND:                -0.863
REMARK SMILES CNC(=O)c1cc(Oc2ccc(NC(=O)Nc3ccc(Cl)c(C(F)(F)F)c3)cc2)ccn1
REMARK SMILES IDX 12 1 9 2 11 3 28 4 10 5 29 6 13 7 16 8 14 9 15 11 17 13
REMARK SMILES IDX 21 14 20 15 22 16 19 17 27 18 18 19 23 20 24 21 25 22 26 23
REMARK SMILES IDX 8 24 7 25 6 26 30 27 5 28 31 29 32 30 3 31 4 32 2 33 1 34
REMARK H PARENT 16 10 13 12 2 35
REMARK Flexibility Score: inf
ROOT
ATOM      1  C   UNL     1      90.110   1.102   9.253  1.00  0.00     0.043 A 
ATOM      2  C   UNL     1      88.234   0.046   7.512  1.00  0.00     0.127 A 
ATOM      3  C   UNL     1      90.065   1.560   7.947  1.00  0.00     0.030 A 
ATOM      4  C   UNL     1      89.237   0.129   9.708  1.00  0.00     0.030 A 
ATOM      5  C   UNL     1      89.120   1.028   7.069  1.00  0.00     0.049 A 
ATOM      6  C   UNL     1      88.292  -0.404   8.831  1.00  0.00     0.049 A 
ENDROOT
BRANCH   1   7
ATOM      7  N   UNL     1      91.069   1.642  10.142  1.00  0.00    -0.308 N 
ATOM      8  N   UNL     1      92.096   2.874  11.806  1.00  0.00    -0.308 N 
ATOM      9  C   UNL     1      90.874   2.615  11.137  1.00  0.00     0.323 C 
ATOM     10  H   UNL     1      92.901   2.344  11.482  1.00  0.00     0.171 HD
ATOM     11  O   UNL     1      89.808   3.162  11.394  1.00  0.00    -0.248 OA
ATOM     12  H   UNL     1      92.013   1.276  10.043  1.00  0.00     0.171 HD
BRANCH   8  13
ATOM     13  C   UNL     1      92.344   3.765  12.850  1.00  0.00     0.043 A 
ATOM     14  Cl  UNL     1      93.157   6.676  16.204  1.00  0.00    -0.084 Cl
ATOM     15  C   UNL     1      92.840   5.547  14.938  1.00  0.00     0.053 A 
ATOM     16  C   UNL     1      92.446   4.238  15.217  1.00  0.00     0.076 A 
ATOM     17  C   UNL     1      92.986   5.964  13.616  1.00  0.00     0.023 A 
ATOM     18  C   UNL     1      92.197   3.347  14.173  1.00  0.00     0.040 A 
ATOM     19  C   UNL     1      92.738   5.073  12.571  1.00  0.00     0.028 A 
BRANCH  16  20
ATOM     20  C   UNL     1      92.280   3.751  16.621  1.00  0.00     0.417 C 
ATOM     21  F   UNL     1      93.416   3.847  17.369  1.00  0.00    -0.166 F 
ATOM     22  F   UNL     1      91.328   4.431  17.323  1.00  0.00    -0.166 F 
ATOM     23  F   UNL     1      91.911   2.438  16.677  1.00  0.00    -0.166 F 
ENDBRANCH  16  20
ENDBRANCH   8  13
ENDBRANCH   1   7
BRANCH   2  24
ATOM     24  O   UNL     1      87.312  -0.474   6.656  1.00  0.00    -0.457 OA
BRANCH  24  25
ATOM     25  C   UNL     1      86.095   0.177   6.547  1.00  0.00     0.131 A 
ATOM     26  C   UNL     1      85.025  -0.265   7.296  1.00  0.00     0.081 A 
ATOM     27  C   UNL     1      85.980   1.254   5.695  1.00  0.00     0.067 A 
ATOM     28  C   UNL     1      83.829   0.421   7.153  1.00  0.00     0.131 A 
ATOM     29  C   UNL     1      84.743   1.873   5.623  1.00  0.00     0.116 A 
ATOM     30  N   UNL     1      83.660   1.482   6.333  1.00  0.00    -0.251 NA
BRANCH  28  31
ATOM     31  C   UNL     1      82.658   0.014   7.909  1.00  0.00     0.269 C 
ATOM     32  O   UNL     1      81.905  -0.879   7.479  1.00  0.00    -0.268 OA
ATOM     33  N   UNL     1      82.438   0.653   9.135  1.00  0.00    -0.354 N 
ATOM     34  C   UNL     1      81.331   0.344  10.012  1.00  0.00     0.143 C 
ATOM     35  H   UNL     1      83.105   1.354   9.447  1.00  0.00     0.163 HD
ENDBRANCH  28  31
ENDBRANCH  24  25
ENDBRANCH   2  24
TORSDOF 6
ENDMDL
MODEL 14
REMARK VINA RESULT:    -6.292     17.830     19.594
REMARK INTER + INTRA:          -9.362
REMARK INTER:                  -8.325
REMARK INTRA:                  -1.037
REMARK UNBOUND:                -0.863
REMARK SMILES CNC(=O)c1cc(Oc2ccc(NC(=O)Nc3ccc(Cl)c(C(F)(F)F)c3)cc2)ccn1
REMARK SMILES IDX 12 1 9 2 11 3 28 4 10 5 29 6 13 7 16 8 14 9 15 11 17 13
REMARK SMILES IDX 21 14 20 15 22 16 19 17 27 18 18 19 23 20 24 21 25 22 26 23
REMARK SMILES IDX 8 24 7 25 6 26 30 27 5 28 31 29 32 30 3 31 4 32 2 33 1 34
REMARK H PARENT 16 10 13 12 2 35
REMARK Flexibility Score: inf
ROOT
ATOM      1  C   UNL     1      88.758 -10.418   6.812  1.00  0.00     0.043 A 
ATOM      2  C   UNL     1      91.482 -10.040   7.144  1.00  0.00     0.127 A 
ATOM      3  C   UNL     1      89.289  -9.147   6.666  1.00  0.00     0.030 A 
ATOM      4  C   UNL     1      89.560 -11.504   7.120  1.00  0.00     0.030 A 
ATOM      5  C   UNL     1      90.661  -8.956   6.833  1.00  0.00     0.049 A 
ATOM      6  C   UNL     1      90.932 -11.314   7.287  1.00  0.00     0.049 A 
ENDROOT
BRANCH   1   7
ATOM      7  N   UNL     1      87.367 -10.610   6.642  1.00  0.00    -0.308 N 
ATOM      8  N   UNL     1      85.282 -10.980   5.717  1.00  0.00    -0.308 N 
ATOM      9  C   UNL     1      86.666 -10.839   5.447  1.00  0.00     0.323 C 
ATOM     10  H   UNL     1      85.009 -10.896   6.693  1.00  0.00     0.171 HD
ATOM     11  O   UNL     1      87.170 -10.909   4.331  1.00  0.00    -0.248 OA
ATOM     12  H   UNL     1      86.814 -10.577   7.495  1.00  0.00     0.171 HD
BRANCH   8  13
ATOM     13  C   UNL     1      84.240 -11.215   4.820  1.00  0.00     0.043 A 
ATOM     14  Cl  UNL     1      80.868 -12.015   1.927  1.00  0.00    -0.084 Cl
ATOM     15  C   UNL     1      82.155 -11.685   3.028  1.00  0.00     0.053 A 
ATOM     16  C   UNL     1      82.661 -10.395   3.186  1.00  0.00     0.076 A 
ATOM     17  C   UNL     1      82.692 -12.740   3.765  1.00  0.00     0.023 A 
ATOM     18  C   UNL     1      83.703 -10.159   4.083  1.00  0.00     0.040 A 
ATOM     19  C   UNL     1      83.735 -12.505   4.662  1.00  0.00     0.028 A 
BRANCH  16  20
ATOM     20  C   UNL     1      82.114  -9.238   2.414  1.00  0.00     0.417 C 
ATOM     21  F   UNL     1      82.243  -9.375   1.063  1.00  0.00    -0.166 F 
ATOM     22  F   UNL     1      80.784  -9.021   2.627  1.00  0.00    -0.166 F 
ATOM     23  F   UNL     1      82.733  -8.063   2.726  1.00  0.00    -0.166 F 
ENDBRANCH  16  20
ENDBRANCH   8  13
ENDBRANCH   1   7
BRANCH   2  24
ATOM     24  O   UNL     1      92.820  -9.854   7.308  1.00  0.00    -0.457 OA
BRANCH  24  25
ATOM     25  C   UNL     1      93.230  -8.865   8.185  1.00  0.00     0.131 A 
ATOM     26  C   UNL     1      92.832  -8.925   9.504  1.00  0.00     0.081 A 
ATOM     27  C   UNL     1      94.029  -7.841   7.721  1.00  0.00     0.067 A 
ATOM     28  C   UNL     1      93.270  -7.912  10.342  1.00  0.00     0.131 A 
ATOM     29  C   UNL     1      94.414  -6.877   8.638  1.00  0.00     0.116 A 
ATOM     30  N   UNL     1      94.053  -6.886   9.942  1.00  0.00    -0.251 NA
BRANCH  28  31
ATOM     31  C   UNL     1      92.892  -7.908  11.744  1.00  0.00     0.269 C 
ATOM     32  O   UNL     1      92.963  -8.949  12.423  1.00  0.00    -0.268 OA
ATOM     33  N   UNL     1      92.474  -6.687  12.287  1.00  0.00    -0.354 N 
ATOM     34  C   UNL     1      92.088  -6.516  13.669  1.00  0.00     0.143 C 
ATOM     35  H   UNL     1      92.466  -5.864  11.690  1.00  0.00     0.163 HD
ENDBRANCH  28  31
ENDBRANCH  24  25
ENDBRANCH   2  24
TORSDOF 6
ENDMDL
MODEL 15
REMARK VINA RESULT:    -6.291     17.958     19.720
REMARK INTER + INTRA:          -9.361
REMARK INTER:                  -8.291
REMARK INTRA:                  -1.070
REMARK UNBOUND:                -0.863
REMARK SMILES CNC(=O)c1cc(Oc2ccc(NC(=O)Nc3ccc(Cl)c(C(F)(F)F)c3)cc2)ccn1
REMARK SMILES IDX 12 1 9 2 11 3 28 4 10 5 29 6 13 7 16 8 14 9 15 11 17 13
REMARK SMILES IDX 21 14 20 15 22 16 19 17 27 18 18 19 23 20 24 21 25 22 26 23
REMARK SMILES IDX 8 24 7 25 6 26 30 27 5 28 31 29 32 30 3 31 4 32 2 33 1 34
REMARK H PARENT 16 10 13 12 2 35
REMARK Flexibility Score: inf
ROOT
ATOM      1  C   UNL     1      88.497  -9.510   6.444  1.00  0.00     0.043 A 
ATOM      2  C   UNL     1      91.216  -9.640   6.955  1.00  0.00     0.127 A 
ATOM      3  C   UNL     1      89.012 -10.621   7.090  1.00  0.00     0.030 A 
ATOM      4  C   UNL     1      89.311  -8.462   6.050  1.00  0.00     0.030 A 
ATOM      5  C   UNL     1      90.382 -10.688   7.347  1.00  0.00     0.049 A 
ATOM      6  C   UNL     1      90.681  -8.527   6.307  1.00  0.00     0.049 A 
ENDROOT
BRANCH   1   7
ATOM      7  N   UNL     1      87.108  -9.444   6.183  1.00  0.00    -0.308 N 
ATOM      8  N   UNL     1      85.027  -9.679   5.206  1.00  0.00    -0.308 N 
ATOM      9  C   UNL     1      86.409  -9.962   5.080  1.00  0.00     0.323 C 
ATOM     10  H   UNL     1      84.753  -9.163   6.038  1.00  0.00     0.171 HD
ATOM     11  O   UNL     1      86.915 -10.571   4.144  1.00  0.00    -0.248 OA
ATOM     12  H   UNL     1      86.554  -8.960   6.886  1.00  0.00     0.171 HD
BRANCH   8  13
ATOM     13  C   UNL     1      83.988 -10.012   4.336  1.00  0.00     0.043 A 
ATOM     14  Cl  UNL     1      80.623 -11.049   1.511  1.00  0.00    -0.084 Cl
ATOM     15  C   UNL     1      81.911 -10.676   2.597  1.00  0.00     0.053 A 
ATOM     16  C   UNL     1      82.494 -11.660   3.396  1.00  0.00     0.076 A 
ATOM     17  C   UNL     1      82.367  -9.360   2.669  1.00  0.00     0.023 A 
ATOM     18  C   UNL     1      83.532 -11.328   4.265  1.00  0.00     0.040 A 
ATOM     19  C   UNL     1      83.406  -9.028   3.538  1.00  0.00     0.028 A 
BRANCH  16  20
ATOM     20  C   UNL     1      82.033 -13.082   3.351  1.00  0.00     0.417 C 
ATOM     21  F   UNL     1      82.118 -13.642   2.110  1.00  0.00    -0.166 F 
ATOM     22  F   UNL     1      82.744 -13.910   4.169  1.00  0.00    -0.166 F 
ATOM     23  F   UNL     1      80.729 -13.219   3.730  1.00  0.00    -0.166 F 
ENDBRANCH  16  20
ENDBRANCH   8  13
ENDBRANCH   1   7
BRANCH   2  24
ATOM     24  O   UNL     1      92.552  -9.705   7.206  1.00  0.00    -0.457 OA
BRANCH  24  25
ATOM     25  C   UNL     1      93.081  -8.803   8.112  1.00  0.00     0.131 A 
ATOM     26  C   UNL     1      92.697  -8.871   9.435  1.00  0.00     0.081 A 
ATOM     27  C   UNL     1      93.983  -7.856   7.674  1.00  0.00     0.067 A 
ATOM     28  C   UNL     1      93.257  -7.947  10.302  1.00  0.00     0.131 A 
ATOM     29  C   UNL     1      94.485  -6.977   8.620  1.00  0.00     0.116 A 
ATOM     30  N   UNL     1      94.143  -6.999   9.928  1.00  0.00    -0.251 NA
BRANCH  28  31
ATOM     31  C   UNL     1      92.900  -7.956  11.710  1.00  0.00     0.269 C 
ATOM     32  O   UNL     1      92.986  -9.003  12.379  1.00  0.00    -0.268 OA
ATOM     33  N   UNL     1      92.486  -6.742  12.270  1.00  0.00    -0.354 N 
ATOM     34  C   UNL     1      92.121  -6.584  13.660  1.00  0.00     0.143 C 
ATOM     35  H   UNL     1      92.466  -5.914  11.681  1.00  0.00     0.163 HD
ENDBRANCH  28  31
ENDBRANCH  24  25
ENDBRANCH   2  24
TORSDOF 6
ENDMDL
MODEL 16
REMARK VINA RESULT:    -6.253      5.191      7.334
REMARK INTER + INTRA:          -9.309
REMARK INTER:                  -8.535
REMARK INTRA:                  -0.774
REMARK UNBOUND:                -0.863
REMARK SMILES CNC(=O)c1cc(Oc2ccc(NC(=O)Nc3ccc(Cl)c(C(F)(F)F)c3)cc2)ccn1
REMARK SMILES IDX 12 1 9 2 11 3 28 4 10 5 29 6 13 7 16 8 14 9 15 11 17 13
REMARK SMILES IDX 21 14 20 15 22 16 19 17 27 18 18 19 23 20 24 21 25 22 26 23
REMARK SMILES IDX 8 24 7 25 6 26 30 27 5 28 31 29 32 30 3 31 4 32 2 33 1 34
REMARK H PARENT 16 10 13 12 2 35
REMARK Flexibility Score: inf
ROOT
ATOM      1  C   UNL     1      96.855 -12.503  21.493  1.00  0.00     0.043 A 
ATOM      2  C   UNL     1      99.113 -12.763  19.911  1.00  0.00     0.127 A 
ATOM      3  C   UNL     1      97.824 -13.427  21.844  1.00  0.00     0.030 A 
ATOM      4  C   UNL     1      96.990 -11.705  20.370  1.00  0.00     0.030 A 
ATOM      5  C   UNL     1      98.962 -13.559  21.047  1.00  0.00     0.049 A 
ATOM      6  C   UNL     1      98.127 -11.836  19.572  1.00  0.00     0.049 A 
ENDROOT
BRANCH   1   7
ATOM      7  N   UNL     1      95.701 -12.370  22.302  1.00  0.00    -0.308 N 
ATOM      8  N   UNL     1      93.633 -12.704  23.277  1.00  0.00    -0.308 N 
ATOM      9  C   UNL     1      94.557 -13.184  22.316  1.00  0.00     0.323 C 
ATOM     10  H   UNL     1      93.919 -11.876  23.793  1.00  0.00     0.171 HD
ATOM     11  O   UNL     1      94.377 -14.167  21.605  1.00  0.00    -0.248 OA
ATOM     12  H   UNL     1      95.710 -11.586  22.950  1.00  0.00     0.171 HD
BRANCH   8  13
ATOM     13  C   UNL     1      92.378 -13.215  23.609  1.00  0.00     0.043 A 
ATOM     14  Cl  UNL     1      88.332 -14.882  24.719  1.00  0.00    -0.084 Cl
ATOM     15  C   UNL     1      89.869 -14.236  24.274  1.00  0.00     0.053 A 
ATOM     16  C   UNL     1      90.065 -13.616  23.040  1.00  0.00     0.076 A 
ATOM     17  C   UNL     1      90.928 -14.346  25.175  1.00  0.00     0.023 A 
ATOM     18  C   UNL     1      91.319 -13.105  22.707  1.00  0.00     0.040 A 
ATOM     19  C   UNL     1      92.183 -13.835  24.843  1.00  0.00     0.028 A 
BRANCH  16  20
ATOM     20  C   UNL     1      88.957 -13.481  22.046  1.00  0.00     0.417 C 
ATOM     21  F   UNL     1      88.449 -14.676  21.630  1.00  0.00    -0.166 F 
ATOM     22  F   UNL     1      87.886 -12.779  22.518  1.00  0.00    -0.166 F 
ATOM     23  F   UNL     1      89.351 -12.833  20.911  1.00  0.00    -0.166 F 
ENDBRANCH  16  20
ENDBRANCH   8  13
ENDBRANCH   1   7
BRANCH   2  24
ATOM     24  O   UNL     1     100.222 -12.892  19.133  1.00  0.00    -0.457 OA
BRANCH  24  25
ATOM     25  C   UNL     1     100.085 -13.542  17.918  1.00  0.00     0.131 A 
ATOM     26  C   UNL     1      98.917 -14.222  17.646  1.00  0.00     0.081 A 
ATOM     27  C   UNL     1     101.118 -13.492  17.007  1.00  0.00     0.067 A 
ATOM     28  C   UNL     1      98.828 -14.853  16.415  1.00  0.00     0.131 A 
ATOM     29  C   UNL     1     100.931 -14.156  15.805  1.00  0.00     0.116 A 
ATOM     30  N   UNL     1      99.808 -14.839  15.485  1.00  0.00    -0.251 NA
BRANCH  28  31
ATOM     31  C   UNL     1      97.629 -15.590  16.056  1.00  0.00     0.269 C 
ATOM     32  O   UNL     1      97.705 -16.643  15.397  1.00  0.00    -0.268 OA
ATOM     33  N   UNL     1      96.407 -15.074  16.504  1.00  0.00    -0.354 N 
ATOM     34  C   UNL     1      95.131 -15.702  16.250  1.00  0.00     0.143 C 
ATOM     35  H   UNL     1      96.411 -14.226  17.066  1.00  0.00     0.163 HD
ENDBRANCH  28  31
ENDBRANCH  24  25
ENDBRANCH   2  24
TORSDOF 6
ENDMDL
MODEL 17
REMARK VINA RESULT:    -6.246      5.908     11.510
REMARK INTER + INTRA:          -9.301
REMARK INTER:                  -8.436
REMARK INTRA:                  -0.865
REMARK UNBOUND:                -0.863
REMARK SMILES CNC(=O)c1cc(Oc2ccc(NC(=O)Nc3ccc(Cl)c(C(F)(F)F)c3)cc2)ccn1
REMARK SMILES IDX 12 1 9 2 11 3 28 4 10 5 29 6 13 7 16 8 14 9 15 11 17 13
REMARK SMILES IDX 21 14 20 15 22 16 19 17 27 18 18 19 23 20 24 21 25 22 26 23
REMARK SMILES IDX 8 24 7 25 6 26 30 27 5 28 31 29 32 30 3 31 4 32 2 33 1 34
REMARK H PARENT 16 10 13 12 2 35
REMARK Flexibility Score: inf
ROOT
ATOM      1  C   UNL     1      96.322 -13.128  23.419  1.00  0.00     0.043 A 
ATOM      2  C   UNL     1      93.985 -14.482  22.809  1.00  0.00     0.127 A 
ATOM      3  C   UNL     1      95.923 -13.229  22.097  1.00  0.00     0.030 A 
ATOM      4  C   UNL     1      95.577 -13.689  24.443  1.00  0.00     0.030 A 
ATOM      5  C   UNL     1      94.746 -13.911  21.789  1.00  0.00     0.049 A 
ATOM      6  C   UNL     1      94.400 -14.371  24.137  1.00  0.00     0.049 A 
ENDROOT
BRANCH   1   7
ATOM      7  N   UNL     1      97.517 -12.436  23.731  1.00  0.00    -0.308 N 
ATOM      8  N   UNL     1      99.033 -10.792  24.308  1.00  0.00    -0.308 N 
ATOM      9  C   UNL     1      97.668 -11.081  24.069  1.00  0.00     0.323 C 
ATOM     10  H   UNL     1      99.678 -11.571  24.203  1.00  0.00     0.171 HD
ATOM     11  O   UNL     1      96.757 -10.265  24.147  1.00  0.00    -0.248 OA
ATOM     12  H   UNL     1      98.366 -12.996  23.704  1.00  0.00     0.171 HD
BRANCH   8  13
ATOM     13  C   UNL     1      99.615  -9.576  24.666  1.00  0.00     0.043 A 
ATOM     14  Cl  UNL     1     101.486  -5.644  25.862  1.00  0.00    -0.084 Cl
ATOM     15  C   UNL     1     100.780  -7.144  25.382  1.00  0.00     0.053 A 
ATOM     16  C   UNL     1     100.851  -7.589  24.062  1.00  0.00     0.076 A 
ATOM     17  C   UNL     1     100.126  -7.914  26.343  1.00  0.00     0.023 A 
ATOM     18  C   UNL     1     100.270  -8.805  23.704  1.00  0.00     0.040 A 
ATOM     19  C   UNL     1      99.544  -9.130  25.985  1.00  0.00     0.028 A 
BRANCH  16  20
ATOM     20  C   UNL     1     101.541  -6.793  23.002  1.00  0.00     0.417 C 
ATOM     21  F   UNL     1     101.661  -7.455  21.815  1.00  0.00    -0.166 F 
ATOM     22  F   UNL     1     100.904  -5.625  22.699  1.00  0.00    -0.166 F 
ATOM     23  F   UNL     1     102.810  -6.439  23.357  1.00  0.00    -0.166 F 
ENDBRANCH  16  20
ENDBRANCH   8  13
ENDBRANCH   1   7
BRANCH   2  24
ATOM     24  O   UNL     1      92.836 -15.148  22.509  1.00  0.00    -0.457 OA
BRANCH  24  25
ATOM     25  C   UNL     1      91.639 -14.577  22.905  1.00  0.00     0.131 A 
ATOM     26  C   UNL     1      91.154 -14.836  24.170  1.00  0.00     0.081 A 
ATOM     27  C   UNL     1      90.958 -13.760  22.027  1.00  0.00     0.067 A 
ATOM     28  C   UNL     1      89.952 -14.239  24.518  1.00  0.00     0.131 A 
ATOM     29  C   UNL     1      89.766 -13.212  22.471  1.00  0.00     0.116 A 
ATOM     30  N   UNL     1      89.244 -13.431  23.699  1.00  0.00    -0.251 NA
BRANCH  28  31
ATOM     31  C   UNL     1      89.378 -14.465  25.833  1.00  0.00     0.269 C 
ATOM     32  O   UNL     1      89.047 -13.505  26.553  1.00  0.00    -0.268 OA
ATOM     33  N   UNL     1      89.199 -15.796  26.230  1.00  0.00    -0.354 N 
ATOM     34  C   UNL     1      88.620 -16.183  27.496  1.00  0.00     0.143 C 
ATOM     35  H   UNL     1      89.461 -16.537  25.585  1.00  0.00     0.163 HD
ENDBRANCH  28  31
ENDBRANCH  24  25
ENDBRANCH   2  24
TORSDOF 6
ENDMDL
MODEL 18
REMARK VINA RESULT:    -6.214      1.760      2.329
REMARK INTER + INTRA:          -9.256
REMARK INTER:                  -8.335
REMARK INTRA:                  -0.921
REMARK UNBOUND:                -0.863
REMARK SMILES CNC(=O)c1cc(Oc2ccc(NC(=O)Nc3ccc(Cl)c(C(F)(F)F)c3)cc2)ccn1
REMARK SMILES IDX 12 1 9 2 11 3 28 4 10 5 29 6 13 7 16 8 14 9 15 11 17 13
REMARK SMILES IDX 21 14 20 15 22 16 19 17 27 18 18 19 23 20 24 21 25 22 26 23
REMARK SMILES IDX 8 24 7 25 6 26 30 27 5 28 31 29 32 30 3 31 4 32 2 33 1 34
REMARK H PARENT 16 10 13 12 2 35
REMARK Flexibility Score: inf
ROOT
ATOM      1  C   UNL     1      96.498 -11.155  24.063  1.00  0.00     0.043 A 
ATOM      2  C   UNL     1      99.224 -10.670  24.005  1.00  0.00     0.127 A 
ATOM      3  C   UNL     1      97.088 -10.741  22.880  1.00  0.00     0.030 A 
ATOM      4  C   UNL     1      97.243 -11.333  25.217  1.00  0.00     0.030 A 
ATOM      5  C   UNL     1      98.461 -10.497  22.851  1.00  0.00     0.049 A 
ATOM      6  C   UNL     1      98.615 -11.089  25.189  1.00  0.00     0.049 A 
ENDROOT
BRANCH   1   7
ATOM      7  N   UNL     1      95.105 -11.403  24.092  1.00  0.00    -0.308 N 
ATOM      8  N   UNL     1      93.032 -12.401  23.883  1.00  0.00    -0.308 N 
ATOM      9  C   UNL     1      94.425 -12.564  23.688  1.00  0.00     0.323 C 
ATOM     10  H   UNL     1      92.739 -11.507  24.269  1.00  0.00     0.171 HD
ATOM     11  O   UNL     1      94.954 -13.573  23.234  1.00  0.00    -0.248 OA
ATOM     12  H   UNL     1      94.534 -10.642  24.450  1.00  0.00     0.171 HD
BRANCH   8  13
ATOM     13  C   UNL     1      92.004 -13.305  23.614  1.00  0.00     0.043 A 
ATOM     14  Cl  UNL     1      88.685 -16.227  22.704  1.00  0.00    -0.084 Cl
ATOM     15  C   UNL     1      89.949 -15.112  23.076  1.00  0.00     0.053 A 
ATOM     16  C   UNL     1      90.194 -14.705  24.387  1.00  0.00     0.076 A 
ATOM     17  C   UNL     1      90.731 -14.615  22.034  1.00  0.00     0.023 A 
ATOM     18  C   UNL     1      91.222 -13.802  24.657  1.00  0.00     0.040 A 
ATOM     19  C   UNL     1      91.759 -13.711  22.303  1.00  0.00     0.028 A 
BRANCH  16  20
ATOM     20  C   UNL     1      89.377 -15.213  25.532  1.00  0.00     0.417 C 
ATOM     21  F   UNL     1      89.833 -14.803  26.750  1.00  0.00    -0.166 F 
ATOM     22  F   UNL     1      88.072 -14.819  25.485  1.00  0.00    -0.166 F 
ATOM     23  F   UNL     1      89.349 -16.576  25.588  1.00  0.00    -0.166 F 
ENDBRANCH  16  20
ENDBRANCH   8  13
ENDBRANCH   1   7
BRANCH   2  24
ATOM     24  O   UNL     1     100.564 -10.431  23.977  1.00  0.00    -0.457 OA
BRANCH  24  25
ATOM     25  C   UNL     1     100.985  -9.168  23.599  1.00  0.00     0.131 A 
ATOM     26  C   UNL     1     101.771  -9.027  22.475  1.00  0.00     0.081 A 
ATOM     27  C   UNL     1     100.606  -8.078  24.353  1.00  0.00     0.067 A 
ATOM     28  C   UNL     1     102.164  -7.741  22.138  1.00  0.00     0.131 A 
ATOM     29  C   UNL     1     101.051  -6.835  23.933  1.00  0.00     0.116 A 
ATOM     30  N   UNL     1     101.823  -6.638  22.840  1.00  0.00    -0.251 NA
BRANCH  28  31
ATOM     31  C   UNL     1     102.993  -7.513  20.967  1.00  0.00     0.269 C 
ATOM     32  O   UNL     1     102.670  -7.983  19.860  1.00  0.00    -0.268 OA
ATOM     33  N   UNL     1     104.141  -6.731  21.143  1.00  0.00    -0.354 N 
ATOM     34  C   UNL     1     105.052  -6.396  20.073  1.00  0.00     0.143 C 
ATOM     35  H   UNL     1     104.335  -6.349  22.064  1.00  0.00     0.163 HD
ENDBRANCH  28  31
ENDBRANCH  24  25
ENDBRANCH   2  24
TORSDOF 6
ENDMDL
MODEL 19
REMARK VINA RESULT:    -6.208      1.868      3.058
REMARK INTER + INTRA:          -9.249
REMARK INTER:                  -8.173
REMARK INTRA:                  -1.076
REMARK UNBOUND:                -0.863
REMARK SMILES CNC(=O)c1cc(Oc2ccc(NC(=O)Nc3ccc(Cl)c(C(F)(F)F)c3)cc2)ccn1
REMARK SMILES IDX 12 1 9 2 11 3 28 4 10 5 29 6 13 7 16 8 14 9 15 11 17 13
REMARK SMILES IDX 21 14 20 15 22 16 19 17 27 18 18 19 23 20 24 21 25 22 26 23
REMARK SMILES IDX 8 24 7 25 6 26 30 27 5 28 31 29 32 30 3 31 4 32 2 33 1 34
REMARK H PARENT 16 10 13 12 2 35
REMARK Flexibility Score: inf
ROOT
ATOM      1  C   UNL     1      96.846 -11.482  23.543  1.00  0.00     0.043 A 
ATOM      2  C   UNL     1      99.549 -11.160  23.033  1.00  0.00     0.127 A 
ATOM      3  C   UNL     1      97.767 -11.874  24.500  1.00  0.00     0.030 A 
ATOM      4  C   UNL     1      97.247 -10.931  22.337  1.00  0.00     0.030 A 
ATOM      5  C   UNL     1      99.129 -11.712  24.244  1.00  0.00     0.049 A 
ATOM      6  C   UNL     1      98.608 -10.769  22.080  1.00  0.00     0.049 A 
ENDROOT
BRANCH   1   7
ATOM      7  N   UNL     1      95.465 -11.646  23.804  1.00  0.00    -0.308 N 
ATOM      8  N   UNL     1      93.292 -12.431  23.800  1.00  0.00    -0.308 N 
ATOM      9  C   UNL     1      94.596 -12.618  23.280  1.00  0.00     0.323 C 
ATOM     10  H   UNL     1      93.178 -11.654  24.446  1.00  0.00     0.171 HD
ATOM     11  O   UNL     1      94.913 -13.500  22.491  1.00  0.00    -0.248 OA
ATOM     12  H   UNL     1      95.059 -10.975  24.451  1.00  0.00     0.171 HD
BRANCH   8  13
ATOM     13  C   UNL     1      92.137 -13.169  23.540  1.00  0.00     0.043 A 
ATOM     14  Cl  UNL     1      88.393 -15.537  22.669  1.00  0.00    -0.084 Cl
ATOM     15  C   UNL     1      89.829 -14.647  23.021  1.00  0.00     0.053 A 
ATOM     16  C   UNL     1      90.628 -14.965  24.119  1.00  0.00     0.076 A 
ATOM     17  C   UNL     1      90.184 -13.590  22.183  1.00  0.00     0.023 A 
ATOM     18  C   UNL     1      91.783 -14.227  24.378  1.00  0.00     0.040 A 
ATOM     19  C   UNL     1      91.338 -12.851  22.443  1.00  0.00     0.028 A 
BRANCH  16  20
ATOM     20  C   UNL     1      90.282 -16.089  25.041  1.00  0.00     0.417 C 
ATOM     21  F   UNL     1      91.206 -16.291  26.025  1.00  0.00    -0.166 F 
ATOM     22  F   UNL     1      89.097 -15.912  25.693  1.00  0.00    -0.166 F 
ATOM     23  F   UNL     1      90.169 -17.283  24.390  1.00  0.00    -0.166 F 
ENDBRANCH  16  20
ENDBRANCH   8  13
ENDBRANCH   1   7
BRANCH   2  24
ATOM     24  O   UNL     1     100.878 -11.003  22.783  1.00  0.00    -0.457 OA
BRANCH  24  25
ATOM     25  C   UNL     1     101.358  -9.712  22.647  1.00  0.00     0.131 A 
ATOM     26  C   UNL     1     101.145  -8.802  23.661  1.00  0.00     0.081 A 
ATOM     27  C   UNL     1     102.043  -9.364  21.502  1.00  0.00     0.067 A 
ATOM     28  C   UNL     1     101.647  -7.524  23.477  1.00  0.00     0.131 A 
ATOM     29  C   UNL     1     102.506  -8.061  21.414  1.00  0.00     0.116 A 
ATOM     30  N   UNL     1     102.324  -7.128  22.377  1.00  0.00    -0.251 NA
BRANCH  28  31
ATOM     31  C   UNL     1     101.461  -6.511  24.501  1.00  0.00     0.269 C 
ATOM     32  O   UNL     1     101.406  -5.305  24.197  1.00  0.00    -0.268 OA
ATOM     33  N   UNL     1     101.326  -6.957  25.821  1.00  0.00    -0.354 N 
ATOM     34  C   UNL     1     101.112  -6.076  26.947  1.00  0.00     0.143 C 
ATOM     35  H   UNL     1     101.349  -7.957  26.004  1.00  0.00     0.163 HD
ENDBRANCH  28  31
ENDBRANCH  24  25
ENDBRANCH   2  24
TORSDOF 6
ENDMDL
MODEL 20
REMARK VINA RESULT:    -6.172      6.489     11.734
REMARK INTER + INTRA:          -9.201
REMARK INTER:                  -8.337
REMARK INTRA:                  -0.863
REMARK UNBOUND:                -0.863
REMARK SMILES CNC(=O)c1cc(Oc2ccc(NC(=O)Nc3ccc(Cl)c(C(F)(F)F)c3)cc2)ccn1
REMARK SMILES IDX 12 1 9 2 11 3 28 4 10 5 29 6 13 7 16 8 14 9 15 11 17 13
REMARK SMILES IDX 21 14 20 15 22 16 19 17 27 18 18 19 23 20 24 21 25 22 26 23
REMARK SMILES IDX 8 24 7 25 6 26 30 27 5 28 31 29 32 30 3 31 4 32 2 33 1 34
REMARK H PARENT 16 10 13 12 2 35
REMARK Flexibility Score: inf
ROOT
ATOM      1  C   UNL     1      96.984 -10.825  23.169  1.00  0.00     0.043 A 
ATOM      2  C   UNL     1      95.426 -13.114  23.126  1.00  0.00     0.127 A 
ATOM      3  C   UNL     1      96.803 -11.499  21.973  1.00  0.00     0.030 A 
ATOM      4  C   UNL     1      96.402 -11.271  24.344  1.00  0.00     0.030 A 
ATOM      5  C   UNL     1      96.018 -12.652  21.951  1.00  0.00     0.049 A 
ATOM      6  C   UNL     1      95.617 -12.424  24.323  1.00  0.00     0.049 A 
ENDROOT
BRANCH   1   7
ATOM      7  N   UNL     1      97.780  -9.655  23.191  1.00  0.00    -0.308 N 
ATOM      8  N   UNL     1      99.558  -8.194  23.392  1.00  0.00    -0.308 N 
ATOM      9  C   UNL     1      99.150  -9.547  23.482  1.00  0.00     0.323 C 
ATOM     10  H   UNL     1      98.833  -7.527  23.142  1.00  0.00     0.171 HD
ATOM     11  O   UNL     1      99.889 -10.482  23.773  1.00  0.00    -0.248 OA
ATOM     12  H   UNL     1      97.293  -8.791  22.967  1.00  0.00     0.171 HD
BRANCH   8  13
ATOM     13  C   UNL     1     100.826  -7.652  23.603  1.00  0.00     0.043 A 
ATOM     14  Cl  UNL     1     104.915  -5.878  24.321  1.00  0.00    -0.084 Cl
ATOM     15  C   UNL     1     103.360  -6.568  24.027  1.00  0.00     0.053 A 
ATOM     16  C   UNL     1     103.124  -7.372  22.913  1.00  0.00     0.076 A 
ATOM     17  C   UNL     1     102.330  -6.305  24.929  1.00  0.00     0.023 A 
ATOM     18  C   UNL     1     101.857  -7.915  22.701  1.00  0.00     0.040 A 
ATOM     19  C   UNL     1     101.063  -6.848  24.718  1.00  0.00     0.028 A 
BRANCH  16  20
ATOM     20  C   UNL     1     104.201  -7.675  21.921  1.00  0.00     0.417 C 
ATOM     21  F   UNL     1     105.265  -8.338  22.459  1.00  0.00    -0.166 F 
ATOM     22  F   UNL     1     103.780  -8.454  20.883  1.00  0.00    -0.166 F 
ATOM     23  F   UNL     1     104.717  -6.549  21.351  1.00  0.00    -0.166 F 
ENDBRANCH  16  20
ENDBRANCH   8  13
ENDBRANCH   1   7
BRANCH   2  24
ATOM     24  O   UNL     1      94.661 -14.240  23.105  1.00  0.00    -0.457 OA
BRANCH  24  25
ATOM     25  C   UNL     1      93.434 -14.197  23.746  1.00  0.00     0.131 A 
ATOM     26  C   UNL     1      92.336 -13.711  23.069  1.00  0.00     0.081 A 
ATOM     27  C   UNL     1      93.338 -14.644  25.047  1.00  0.00     0.067 A 
ATOM     28  C   UNL     1      91.132 -13.691  23.755  1.00  0.00     0.131 A 
ATOM     29  C   UNL     1      92.090 -14.582  25.644  1.00  0.00     0.116 A 
ATOM     30  N   UNL     1      90.979 -14.115  25.029  1.00  0.00    -0.251 NA
BRANCH  28  31
ATOM     31  C   UNL     1      89.930 -13.193  23.108  1.00  0.00     0.269 C 
ATOM     32  O   UNL     1      88.972 -12.778  23.785  1.00  0.00    -0.268 OA
ATOM     33  N   UNL     1      89.919 -13.182  21.708  1.00  0.00    -0.354 N 
ATOM     34  C   UNL     1      88.809 -12.696  20.920  1.00  0.00     0.143 C 
ATOM     35  H   UNL     1      90.744 -13.505  21.210  1.00  0.00     0.163 HD
ENDBRANCH  28  31
ENDBRANCH  24  25
ENDBRANCH   2  24
TORSDOF 6
ENDMDL
