REMARK SMILES CC(O)N(C)[C@H](CO)C(O)N[C@H](C)C(O)NCC(O)N(C)[C@H]1C2CCC(O)C(C2)[C@@H]2CC(CCC2O)C[C@@H](C(O)O)N2C34OC25[C@]32C[C@]45N2C1O
REMARK SMILES IDX 17 1 18 2 19 3 20 4 21 5 22 6 50 7 51 8 49 9 46 10 48 11
REMARK SMILES IDX 47 12 43 13 45 14 42 15 44 16 38 17 37 18 32 19 31 20 33 21
REMARK SMILES IDX 30 22 34 23 35 24 36 26 39 27 40 28 41 29 23 30 29 31 24 32
REMARK SMILES IDX 28 33 25 34 26 35 27 37 16 38 14 39 15 40 12 41 13 42 11 43
REMARK SMILES IDX 9 44 10 45 6 46 4 47 5 48 2 49 3 50 1 51 7 52 8 53
REMARK H PARENT
REMARK Flexibility Score: 80.00
ROOT
ATOM      1  C   UNL     1      -4.236  49.703   6.355  1.00  0.00     0.037 C 
ENDROOT
BRANCH   1   2
ATOM      2  C   UNL     1      -3.868  48.990   7.659  1.00  0.00     0.120 C 
ATOM      3  O   UNL     1      -4.054  49.537   8.744  1.00  0.00    -0.377 OA
BRANCH   2   4
ATOM      4  N   UNL     1      -3.304  47.790   7.537  1.00  0.00    -0.273 NA
ATOM      5  C   UNL     1      -3.022  47.314   6.173  1.00  0.00    -0.010 C 
BRANCH   4   6
ATOM      6  C   UNL     1      -2.979  47.013   8.743  1.00  0.00     0.054 C 
BRANCH   6   7
ATOM      7  C   UNL     1      -1.469  46.923   8.982  1.00  0.00     0.124 C 
ATOM      8  O   UNL     1      -0.656  47.302   8.141  1.00  0.00    -0.377 OA
BRANCH   7   9
ATOM      9  N   UNL     1      -1.157  46.358  10.146  1.00  0.00    -0.249 NA
ATOM     10  C   UNL     1       0.211  46.104  10.620  1.00  0.00     0.116 C 
ATOM     11  C   UNL     1       0.211  46.104  10.620  1.00  0.00     0.116 C 
ATOM     12  C   UNL     1       0.680  47.245  11.526  1.00  0.00     0.001 C 
ATOM     13  C   UNL     1       0.152  44.795  11.411  1.00  0.00     0.173 C 
ATOM     14  C   UNL     1       0.152  44.795  11.411  1.00  0.00     0.173 C 
ATOM     15  N   UNL     1       0.739  43.750  10.835  1.00  0.00    -0.232 NA
ATOM     16  O   UNL     1      -0.437  44.743  12.489  1.00  0.00    -0.330 OA
BRANCH  15  17
ATOM     17  C   UNL     1       0.763  42.407  11.436  1.00  0.00     0.066 C 
BRANCH  17  18
ATOM     18  C   UNL     1       0.995  41.344  10.356  1.00  0.00    -0.030 C 
BRANCH  18  19
ATOM     19  C   UNL     1      -0.128  41.269   9.317  1.00  0.00    -0.039 C 
ATOM     20  C   UNL     1      -1.158  42.203   9.314  1.00  0.00    -0.045 C 
ATOM     21  C   UNL     1      -0.116  40.268   8.348  1.00  0.00    -0.048 C 
ATOM     22  C   UNL     1      -2.171  42.163   8.361  1.00  0.00    -0.010 CG0
ATOM     23  C   UNL     1      -1.126  40.215   7.392  1.00  0.00    -0.026 C 
ATOM     24  C   UNL     1      -2.152  41.156   7.394  1.00  0.00     0.057 C 
ATOM     25  G   UNL     1      -3.108  43.190   8.351  1.00  0.00     0.000 G0
ATOM     26  O   UNL     1      -3.121  41.095   6.443  1.00  0.00    -0.393 OA
ENDBRANCH  18  19
ENDBRANCH  17  18
BRANCH  17  27
ATOM     27  C   UNL     1       1.853  42.294  12.504  1.00  0.00     0.167 C 
ATOM     28  O   UNL     1       1.840  41.358  13.302  1.00  0.00    -0.367 OA
ATOM     29  O   UNL     1       2.750  43.133  12.573  1.00  0.00    -0.367 OA
ENDBRANCH  17  27
ENDBRANCH  15  17
ENDBRANCH   7   9
ENDBRANCH   6   7
BRANCH   6  30
ATOM     30  C   UNL     1      -3.543  45.596   8.601  1.00  0.00    -0.021 C 
ATOM     31  C   UNL     1      -2.671  44.514   8.523  1.00  0.00    -0.043 C 
ATOM     32  C   UNL     1      -4.915  45.375   8.533  1.00  0.00    -0.046 C 
ATOM     33  C   UNL     1      -3.141  43.211   8.383  1.00  0.00    -0.010 CG0
ATOM     34  C   UNL     1      -5.394  44.075   8.380  1.00  0.00    -0.026 C 
ATOM     35  C   UNL     1      -4.517  42.997   8.303  1.00  0.00     0.057 C 
ATOM     36  G   UNL     1      -2.212  42.176   8.383  1.00  0.00     0.000 G0
ATOM     37  O   UNL     1      -5.014  41.739   8.154  1.00  0.00    -0.393 OA
ENDBRANCH   6  30
ENDBRANCH   4   6
ENDBRANCH   2   4
ENDBRANCH   1   2
BRANCH   1  38
ATOM     38  N   UNL     1      -4.782  51.050   6.582  1.00  0.00    -0.287 NA
BRANCH  38  39
ATOM     39  C   UNL     1      -4.060  52.016   7.139  1.00  0.00     0.120 C 
ATOM     40  O   UNL     1      -2.904  51.861   7.533  1.00  0.00    -0.377 OA
BRANCH  39  41
ATOM     41  C   UNL     1      -4.744  53.376   7.274  1.00  0.00     0.046 C 
ATOM     42  C   UNL     1      -5.298  53.545   8.691  1.00  0.00    -0.046 C 
BRANCH  41  43
ATOM     43  N   UNL     1      -3.710  54.385   6.998  1.00  0.00    -0.284 NA
BRANCH  43  44
ATOM     44  C   UNL     1      -3.429  54.814   5.769  1.00  0.00     0.123 C 
ATOM     45  O   UNL     1      -4.032  54.458   4.757  1.00  0.00    -0.377 OA
BRANCH  44  46
ATOM     46  C   UNL     1      -2.280  55.823   5.694  1.00  0.00     0.074 C 
BRANCH  46  47
ATOM     47  N   UNL     1      -2.506  56.887   4.701  1.00  0.00    -0.273 NA
ATOM     48  C   UNL     1      -3.231  56.695   3.434  1.00  0.00    -0.010 C 
BRANCH  47  49
ATOM     49  C   UNL     1      -2.003  58.098   4.936  1.00  0.00     0.104 C 
ATOM     50  O   UNL     1      -1.350  58.366   5.946  1.00  0.00    -0.379 OA
ATOM     51  C   UNL     1      -2.254  59.182   3.882  1.00  0.00    -0.025 C 
ENDBRANCH  47  49
ENDBRANCH  46  47
BRANCH  46  52
ATOM     52  C   UNL     1      -0.983  55.079   5.364  1.00  0.00     0.063 C 
ATOM     53  O   UNL     1      -1.057  54.533   4.045  1.00  0.00    -0.395 OA
ENDBRANCH  46  52
ENDBRANCH  44  46
ENDBRANCH  43  44
ENDBRANCH  41  43
ENDBRANCH  39  41
ENDBRANCH  38  39
ENDBRANCH   1  38
TORSDOF 13
