MODEL 1
REMARK VINA RESULT:    -7.083      0.000      0.000
REMARK INTER + INTRA:         -10.200
REMARK INTER:                  -9.302
REMARK INTRA:                  -0.898
REMARK UNBOUND:                -0.632
REMARK SMILES CNC(=O)c1cc(Oc2ccc(NC(=O)Nc3ccc(Cl)c(C(F)(F)F)c3)cc2)ccn1
REMARK SMILES IDX 12 1 9 2 11 3 28 4 10 5 29 6 13 7 16 8 14 9 15 11 17 13
REMARK SMILES IDX 21 14 20 15 22 16 19 17 27 18 18 19 23 20 24 21 25 22 26 23
REMARK SMILES IDX 8 24 7 25 6 26 30 27 5 28 31 29 32 30 3 31 4 32 2 33 1 34
REMARK H PARENT 16 10 13 12 2 35
REMARK Flexibility Score: inf
ROOT
ATOM      1  C   UNL     1      86.889  -2.659   8.118  1.00  0.00     0.043 A 
ATOM      2  C   UNL     1      87.637  -4.369   6.072  1.00  0.00     0.127 A 
ATOM      3  C   UNL     1      87.988  -3.483   8.292  1.00  0.00     0.030 A 
ATOM      4  C   UNL     1      86.156  -2.671   6.943  1.00  0.00     0.030 A 
ATOM      5  C   UNL     1      88.366  -4.345   7.261  1.00  0.00     0.049 A 
ATOM      6  C   UNL     1      86.532  -3.532   5.912  1.00  0.00     0.049 A 
ENDROOT
BRANCH   1   7
ATOM      7  N   UNL     1      86.507  -1.786   9.164  1.00  0.00    -0.308 N 
ATOM      8  N   UNL     1      86.205   0.089  10.480  1.00  0.00    -0.308 N 
ATOM      9  C   UNL     1      86.764  -0.410   9.278  1.00  0.00     0.323 C 
ATOM     10  H   UNL     1      85.721  -0.592  11.061  1.00  0.00     0.171 HD
ATOM     11  O   UNL     1      87.381   0.266   8.462  1.00  0.00    -0.248 OA
ATOM     12  H   UNL     1      85.981  -2.215   9.921  1.00  0.00     0.171 HD
BRANCH   8  13
ATOM     13  C   UNL     1      86.232   1.392  10.978  1.00  0.00     0.043 A 
ATOM     14  Cl  UNL     1      86.280   5.613  12.579  1.00  0.00    -0.084 Cl
ATOM     15  C   UNL     1      86.285   3.997  11.973  1.00  0.00     0.053 A 
ATOM     16  C   UNL     1      87.454   3.237  11.946  1.00  0.00     0.076 A 
ATOM     17  C   UNL     1      85.090   3.454  11.503  1.00  0.00     0.023 A 
ATOM     18  C   UNL     1      87.428   1.934  11.449  1.00  0.00     0.040 A 
ATOM     19  C   UNL     1      85.063   2.151  11.005  1.00  0.00     0.028 A 
BRANCH  16  20
ATOM     20  C   UNL     1      88.756   3.782  12.439  1.00  0.00     0.417 C 
ATOM     21  F   UNL     1      89.093   4.978  11.876  1.00  0.00    -0.166 F 
ATOM     22  F   UNL     1      88.779   4.000  13.786  1.00  0.00    -0.166 F 
ATOM     23  F   UNL     1      89.803   2.945  12.183  1.00  0.00    -0.166 F 
ENDBRANCH  16  20
ENDBRANCH   8  13
ENDBRANCH   1   7
BRANCH   2  24
ATOM     24  O   UNL     1      88.005  -5.210   5.067  1.00  0.00    -0.457 OA
BRANCH  24  25
ATOM     25  C   UNL     1      87.425  -6.467   5.034  1.00  0.00     0.131 A 
ATOM     26  C   UNL     1      87.823  -7.417   5.950  1.00  0.00     0.081 A 
ATOM     27  C   UNL     1      86.460  -6.739   4.088  1.00  0.00     0.067 A 
ATOM     28  C   UNL     1      87.211  -8.658   5.876  1.00  0.00     0.131 A 
ATOM     29  C   UNL     1      85.908  -8.010   4.098  1.00  0.00     0.116 A 
ATOM     30  N   UNL     1      86.261  -8.981   4.971  1.00  0.00    -0.251 NA
BRANCH  28  31
ATOM     31  C   UNL     1      87.578  -9.711   6.807  1.00  0.00     0.269 C 
ATOM     32  O   UNL     1      88.505 -10.498   6.541  1.00  0.00    -0.268 OA
ATOM     33  N   UNL     1      86.862  -9.777   8.009  1.00  0.00    -0.354 N 
ATOM     34  C   UNL     1      87.124 -10.750   9.044  1.00  0.00     0.143 C 
ATOM     35  H   UNL     1      86.136  -9.087   8.183  1.00  0.00     0.163 HD
ENDBRANCH  28  31
ENDBRANCH  24  25
ENDBRANCH   2  24
TORSDOF 6
ENDMDL
MODEL 2
REMARK VINA RESULT:    -7.078      5.618     12.104
REMARK INTER + INTRA:         -10.193
REMARK INTER:                  -9.173
REMARK INTRA:                  -1.019
REMARK UNBOUND:                -0.632
REMARK SMILES CNC(=O)c1cc(Oc2ccc(NC(=O)Nc3ccc(Cl)c(C(F)(F)F)c3)cc2)ccn1
REMARK SMILES IDX 12 1 9 2 11 3 28 4 10 5 29 6 13 7 16 8 14 9 15 11 17 13
REMARK SMILES IDX 21 14 20 15 22 16 19 17 27 18 18 19 23 20 24 21 25 22 26 23
REMARK SMILES IDX 8 24 7 25 6 26 30 27 5 28 31 29 32 30 3 31 4 32 2 33 1 34
REMARK H PARENT 16 10 13 12 2 35
REMARK Flexibility Score: inf
ROOT
ATOM      1  C   UNL     1      86.273   1.312  11.154  1.00  0.00     0.043 A 
ATOM      2  C   UNL     1      86.453   3.856  12.235  1.00  0.00     0.127 A 
ATOM      3  C   UNL     1      87.335   1.621  11.987  1.00  0.00     0.030 A 
ATOM      4  C   UNL     1      85.298   2.248  10.850  1.00  0.00     0.030 A 
ATOM      5  C   UNL     1      87.426   2.902  12.532  1.00  0.00     0.049 A 
ATOM      6  C   UNL     1      85.389   3.530  11.394  1.00  0.00     0.049 A 
ENDROOT
BRANCH   1   7
ATOM      7  N   UNL     1      86.181   0.013  10.602  1.00  0.00    -0.308 N 
ATOM      8  N   UNL     1      86.454  -1.839   9.247  1.00  0.00    -0.308 N 
ATOM      9  C   UNL     1      86.813  -0.484   9.450  1.00  0.00     0.323 C 
ATOM     10  H   UNL     1      85.819  -2.238   9.934  1.00  0.00     0.171 HD
ATOM     11  O   UNL     1      87.565   0.156   8.722  1.00  0.00    -0.248 OA
ATOM     12  H   UNL     1      85.582  -0.636  11.108  1.00  0.00     0.171 HD
BRANCH   8  13
ATOM     13  C   UNL     1      86.855  -2.702   8.227  1.00  0.00     0.043 A 
ATOM     14  Cl  UNL     1      88.183  -5.508   4.949  1.00  0.00    -0.084 Cl
ATOM     15  C   UNL     1      87.656  -4.429   6.189  1.00  0.00     0.053 A 
ATOM     16  C   UNL     1      86.537  -3.615   6.013  1.00  0.00     0.076 A 
ATOM     17  C   UNL     1      88.374  -4.379   7.383  1.00  0.00     0.023 A 
ATOM     18  C   UNL     1      86.136  -2.752   7.033  1.00  0.00     0.040 A 
ATOM     19  C   UNL     1      87.974  -3.516   8.403  1.00  0.00     0.028 A 
BRANCH  16  20
ATOM     20  C   UNL     1      85.741  -3.637   4.748  1.00  0.00     0.417 C 
ATOM     21  F   UNL     1      84.680  -2.780   4.757  1.00  0.00    -0.166 F 
ATOM     22  F   UNL     1      86.467  -3.298   3.643  1.00  0.00    -0.166 F 
ATOM     23  F   UNL     1      85.219  -4.869   4.482  1.00  0.00    -0.166 F 
ENDBRANCH  16  20
ENDBRANCH   8  13
ENDBRANCH   1   7
BRANCH   2  24
ATOM     24  O   UNL     1      86.542   5.106  12.765  1.00  0.00    -0.457 OA
BRANCH  24  25
ATOM     25  C   UNL     1      87.355   6.023  12.121  1.00  0.00     0.131 A 
ATOM     26  C   UNL     1      88.671   6.151  12.514  1.00  0.00     0.081 A 
ATOM     27  C   UNL     1      86.833   6.786  11.098  1.00  0.00     0.067 A 
ATOM     28  C   UNL     1      89.443   7.080  11.836  1.00  0.00     0.131 A 
ATOM     29  C   UNL     1      87.687   7.687  10.484  1.00  0.00     0.116 A 
ATOM     30  N   UNL     1      88.984   7.854  10.828  1.00  0.00    -0.251 NA
BRANCH  28  31
ATOM     31  C   UNL     1      90.838   7.272  12.194  1.00  0.00     0.269 C 
ATOM     32  O   UNL     1      91.280   6.841  13.275  1.00  0.00    -0.268 OA
ATOM     33  N   UNL     1      91.648   7.935  11.264  1.00  0.00    -0.354 N 
ATOM     34  C   UNL     1      93.058   8.181  11.463  1.00  0.00     0.143 C 
ATOM     35  H   UNL     1      91.237   8.237  10.385  1.00  0.00     0.163 HD
ENDBRANCH  28  31
ENDBRANCH  24  25
ENDBRANCH   2  24
TORSDOF 6
ENDMDL
MODEL 3
REMARK VINA RESULT:    -7.050      5.784     12.042
REMARK INTER + INTRA:         -10.154
REMARK INTER:                  -9.095
REMARK INTRA:                  -1.060
REMARK UNBOUND:                -0.632
REMARK SMILES CNC(=O)c1cc(Oc2ccc(NC(=O)Nc3ccc(Cl)c(C(F)(F)F)c3)cc2)ccn1
REMARK SMILES IDX 12 1 9 2 11 3 28 4 10 5 29 6 13 7 16 8 14 9 15 11 17 13
REMARK SMILES IDX 21 14 20 15 22 16 19 17 27 18 18 19 23 20 24 21 25 22 26 23
REMARK SMILES IDX 8 24 7 25 6 26 30 27 5 28 31 29 32 30 3 31 4 32 2 33 1 34
REMARK H PARENT 16 10 13 12 2 35
REMARK Flexibility Score: inf
ROOT
ATOM      1  C   UNL     1      87.548  -1.002   9.498  1.00  0.00     0.043 A 
ATOM      2  C   UNL     1      86.293   1.043  10.881  1.00  0.00     0.127 A 
ATOM      3  C   UNL     1      86.867  -1.293  10.668  1.00  0.00     0.030 A 
ATOM      4  C   UNL     1      87.614   0.290   9.004  1.00  0.00     0.030 A 
ATOM      5  C   UNL     1      86.235  -0.263  11.365  1.00  0.00     0.049 A 
ATOM      6  C   UNL     1      86.983   1.320   9.700  1.00  0.00     0.049 A 
ENDROOT
BRANCH   1   7
ATOM      7  N   UNL     1      88.189  -2.047   8.792  1.00  0.00    -0.308 N 
ATOM      8  N   UNL     1      88.609  -3.842   7.399  1.00  0.00    -0.308 N 
ATOM      9  C   UNL     1      87.618  -2.953   7.883  1.00  0.00     0.323 C 
ATOM     10  H   UNL     1      89.548  -3.703   7.765  1.00  0.00     0.171 HD
ATOM     11  O   UNL     1      86.438  -2.977   7.553  1.00  0.00    -0.248 OA
ATOM     12  H   UNL     1      89.185  -2.148   8.971  1.00  0.00     0.171 HD
BRANCH   8  13
ATOM     13  C   UNL     1      88.469  -4.888   6.487  1.00  0.00     0.043 A 
ATOM     14  Cl  UNL     1      88.018  -8.248   3.506  1.00  0.00    -0.084 Cl
ATOM     15  C   UNL     1      88.191  -6.980   4.663  1.00  0.00     0.053 A 
ATOM     16  C   UNL     1      88.200  -7.245   6.032  1.00  0.00     0.076 A 
ATOM     17  C   UNL     1      88.320  -5.669   4.206  1.00  0.00     0.023 A 
ATOM     18  C   UNL     1      88.340  -6.200   6.945  1.00  0.00     0.040 A 
ATOM     19  C   UNL     1      88.460  -4.623   5.118  1.00  0.00     0.028 A 
BRANCH  16  20
ATOM     20  C   UNL     1      88.062  -8.636   6.563  1.00  0.00     0.417 C 
ATOM     21  F   UNL     1      86.875  -9.226   6.241  1.00  0.00    -0.166 F 
ATOM     22  F   UNL     1      89.023  -9.490   6.107  1.00  0.00    -0.166 F 
ATOM     23  F   UNL     1      88.141  -8.686   7.924  1.00  0.00    -0.166 F 
ENDBRANCH  16  20
ENDBRANCH   8  13
ENDBRANCH   1   7
BRANCH   2  24
ATOM     24  O   UNL     1      85.677   2.049  11.561  1.00  0.00    -0.457 OA
BRANCH  24  25
ATOM     25  C   UNL     1      86.478   2.987  12.188  1.00  0.00     0.131 A 
ATOM     26  C   UNL     1      86.534   4.270  11.686  1.00  0.00     0.081 A 
ATOM     27  C   UNL     1      87.201   2.619  13.303  1.00  0.00     0.067 A 
ATOM     28  C   UNL     1      87.349   5.172  12.350  1.00  0.00     0.131 A 
ATOM     29  C   UNL     1      87.986   3.595  13.896  1.00  0.00     0.116 A 
ATOM     30  N   UNL     1      88.079   4.867  13.446  1.00  0.00    -0.251 NA
BRANCH  28  31
ATOM     31  C   UNL     1      87.460   6.542  11.880  1.00  0.00     0.269 C 
ATOM     32  O   UNL     1      87.702   7.468  12.676  1.00  0.00    -0.268 OA
ATOM     33  N   UNL     1      87.305   6.758  10.505  1.00  0.00    -0.354 N 
ATOM     34  C   UNL     1      87.411   8.057   9.882  1.00  0.00     0.143 C 
ATOM     35  H   UNL     1      87.140   5.957   9.901  1.00  0.00     0.163 HD
ENDBRANCH  28  31
ENDBRANCH  24  25
ENDBRANCH   2  24
TORSDOF 6
ENDMDL
MODEL 4
REMARK VINA RESULT:    -7.043     19.791     22.614
REMARK INTER + INTRA:         -10.146
REMARK INTER:                  -9.187
REMARK INTRA:                  -0.958
REMARK UNBOUND:                -0.632
REMARK SMILES CNC(=O)c1cc(Oc2ccc(NC(=O)Nc3ccc(Cl)c(C(F)(F)F)c3)cc2)ccn1
REMARK SMILES IDX 12 1 9 2 11 3 28 4 10 5 29 6 13 7 16 8 14 9 15 11 17 13
REMARK SMILES IDX 21 14 20 15 22 16 19 17 27 18 18 19 23 20 24 21 25 22 26 23
REMARK SMILES IDX 8 24 7 25 6 26 30 27 5 28 31 29 32 30 3 31 4 32 2 33 1 34
REMARK H PARENT 16 10 13 12 2 35
REMARK Flexibility Score: inf
ROOT
ATOM      1  C   UNL     1      97.190 -10.934  24.168  1.00  0.00     0.043 A 
ATOM      2  C   UNL     1      99.498 -10.184  25.503  1.00  0.00     0.127 A 
ATOM      3  C   UNL     1      97.087 -10.277  25.382  1.00  0.00     0.030 A 
ATOM      4  C   UNL     1      98.422 -11.223  23.606  1.00  0.00     0.030 A 
ATOM      5  C   UNL     1      98.249  -9.899  26.055  1.00  0.00     0.049 A 
ATOM      6  C   UNL     1      99.585 -10.846  24.278  1.00  0.00     0.049 A 
ENDROOT
BRANCH   1   7
ATOM      7  N   UNL     1      96.011 -11.317  23.486  1.00  0.00    -0.308 N 
ATOM      8  N   UNL     1      94.067 -12.402  22.869  1.00  0.00    -0.308 N 
ATOM      9  C   UNL     1      95.125 -12.358  23.809  1.00  0.00     0.323 C 
ATOM     10  H   UNL     1      94.102 -11.707  22.127  1.00  0.00     0.171 HD
ATOM     11  O   UNL     1      95.243 -13.119  24.764  1.00  0.00    -0.248 OA
ATOM     12  H   UNL     1      95.784 -10.765  22.662  1.00  0.00     0.171 HD
BRANCH   8  13
ATOM     13  C   UNL     1      92.982 -13.278  22.820  1.00  0.00     0.043 A 
ATOM     14  Cl  UNL     1      89.493 -16.138  22.643  1.00  0.00    -0.084 Cl
ATOM     15  C   UNL     1      90.813 -15.029  22.723  1.00  0.00     0.053 A 
ATOM     16  C   UNL     1      90.661 -13.761  23.283  1.00  0.00     0.076 A 
ATOM     17  C   UNL     1      92.049 -15.421  22.210  1.00  0.00     0.023 A 
ATOM     18  C   UNL     1      91.745 -12.885  23.333  1.00  0.00     0.040 A 
ATOM     19  C   UNL     1      93.134 -14.546  22.259  1.00  0.00     0.028 A 
BRANCH  16  20
ATOM     20  C   UNL     1      89.352 -13.301  23.842  1.00  0.00     0.417 C 
ATOM     21  F   UNL     1      88.382 -13.143  22.896  1.00  0.00    -0.166 F 
ATOM     22  F   UNL     1      88.822 -14.159  24.760  1.00  0.00    -0.166 F 
ATOM     23  F   UNL     1      89.449 -12.097  24.475  1.00  0.00    -0.166 F 
ENDBRANCH  16  20
ENDBRANCH   8  13
ENDBRANCH   1   7
BRANCH   2  24
ATOM     24  O   UNL     1     100.632  -9.815  26.159  1.00  0.00    -0.457 OA
BRANCH  24  25
ATOM     25  C   UNL     1     101.249  -8.640  25.769  1.00  0.00     0.131 A 
ATOM     26  C   UNL     1     102.423  -8.701  25.049  1.00  0.00     0.081 A 
ATOM     27  C   UNL     1     100.675  -7.432  26.106  1.00  0.00     0.067 A 
ATOM     28  C   UNL     1     103.001  -7.496  24.680  1.00  0.00     0.131 A 
ATOM     29  C   UNL     1     101.330  -6.284  25.690  1.00  0.00     0.116 A 
ATOM     30  N   UNL     1     102.483  -6.286  24.983  1.00  0.00    -0.251 NA
BRANCH  28  31
ATOM     31  C   UNL     1     104.239  -7.481  23.921  1.00  0.00     0.269 C 
ATOM     32  O   UNL     1     105.034  -8.436  23.986  1.00  0.00    -0.268 OA
ATOM     33  N   UNL     1     104.473  -6.365  23.108  1.00  0.00    -0.354 N 
ATOM     34  C   UNL     1     105.644  -6.213  22.276  1.00  0.00     0.143 C 
ATOM     35  H   UNL     1     103.771  -5.630  23.073  1.00  0.00     0.163 HD
ENDBRANCH  28  31
ENDBRANCH  24  25
ENDBRANCH   2  24
TORSDOF 6
ENDMDL
MODEL 5
REMARK VINA RESULT:    -6.966      5.623     11.837
REMARK INTER + INTRA:         -10.041
REMARK INTER:                  -9.014
REMARK INTRA:                  -1.026
REMARK UNBOUND:                -0.632
REMARK SMILES CNC(=O)c1cc(Oc2ccc(NC(=O)Nc3ccc(Cl)c(C(F)(F)F)c3)cc2)ccn1
REMARK SMILES IDX 12 1 9 2 11 3 28 4 10 5 29 6 13 7 16 8 14 9 15 11 17 13
REMARK SMILES IDX 21 14 20 15 22 16 19 17 27 18 18 19 23 20 24 21 25 22 26 23
REMARK SMILES IDX 8 24 7 25 6 26 30 27 5 28 31 29 32 30 3 31 4 32 2 33 1 34
REMARK H PARENT 16 10 13 12 2 35
REMARK Flexibility Score: inf
ROOT
ATOM      1  C   UNL     1      86.109   0.981  10.880  1.00  0.00     0.043 A 
ATOM      2  C   UNL     1      86.023   3.557  11.894  1.00  0.00     0.127 A 
ATOM      3  C   UNL     1      87.204   1.474  11.571  1.00  0.00     0.030 A 
ATOM      4  C   UNL     1      84.972   1.748  10.686  1.00  0.00     0.030 A 
ATOM      5  C   UNL     1      87.160   2.772  12.082  1.00  0.00     0.049 A 
ATOM      6  C   UNL     1      84.929   3.045  11.196  1.00  0.00     0.049 A 
ENDROOT
BRANCH   1   7
ATOM      7  N   UNL     1      86.154  -0.335  10.363  1.00  0.00    -0.308 N 
ATOM      8  N   UNL     1      86.520  -2.164   8.999  1.00  0.00    -0.308 N 
ATOM      9  C   UNL     1      86.670  -0.761   9.128  1.00  0.00     0.323 C 
ATOM     10  H   UNL     1      86.079  -2.638   9.783  1.00  0.00     0.171 HD
ATOM     11  O   UNL     1      87.177  -0.033   8.282  1.00  0.00    -0.248 OA
ATOM     12  H   UNL     1      85.762  -1.055  10.965  1.00  0.00     0.171 HD
BRANCH   8  13
ATOM     13  C   UNL     1      86.895  -2.985   7.935  1.00  0.00     0.043 A 
ATOM     14  Cl  UNL     1      88.141  -5.655   4.514  1.00  0.00    -0.084 Cl
ATOM     15  C   UNL     1      87.645  -4.628   5.810  1.00  0.00     0.053 A 
ATOM     16  C   UNL     1      86.487  -3.856   5.719  1.00  0.00     0.076 A 
ATOM     17  C   UNL     1      88.428  -4.579   6.963  1.00  0.00     0.023 A 
ATOM     18  C   UNL     1      86.112  -3.035   6.782  1.00  0.00     0.040 A 
ATOM     19  C   UNL     1      88.053  -3.758   8.026  1.00  0.00     0.028 A 
BRANCH  16  20
ATOM     20  C   UNL     1      85.622  -3.879   4.500  1.00  0.00     0.417 C 
ATOM     21  F   UNL     1      85.053  -5.095   4.259  1.00  0.00    -0.166 F 
ATOM     22  F   UNL     1      84.580  -3.000   4.557  1.00  0.00    -0.166 F 
ATOM     23  F   UNL     1      86.310  -3.562   3.366  1.00  0.00    -0.166 F 
ENDBRANCH  16  20
ENDBRANCH   8  13
ENDBRANCH   1   7
BRANCH   2  24
ATOM     24  O   UNL     1      85.981   4.823  12.391  1.00  0.00    -0.457 OA
BRANCH  24  25
ATOM     25  C   UNL     1      86.863   5.751  11.864  1.00  0.00     0.131 A 
ATOM     26  C   UNL     1      87.004   5.846  10.496  1.00  0.00     0.081 A 
ATOM     27  C   UNL     1      87.578   6.562  12.719  1.00  0.00     0.067 A 
ATOM     28  C   UNL     1      87.898   6.792  10.019  1.00  0.00     0.131 A 
ATOM     29  C   UNL     1      88.446   7.476  12.143  1.00  0.00     0.116 A 
ATOM     30  N   UNL     1      88.624   7.612  10.809  1.00  0.00    -0.251 NA
BRANCH  28  31
ATOM     31  C   UNL     1      88.101   6.950   8.589  1.00  0.00     0.269 C 
ATOM     32  O   UNL     1      89.110   6.476   8.036  1.00  0.00    -0.268 OA
ATOM     33  N   UNL     1      87.106   7.631   7.877  1.00  0.00    -0.354 N 
ATOM     34  C   UNL     1      87.152   7.849   6.449  1.00  0.00     0.143 C 
ATOM     35  H   UNL     1      86.289   7.968   8.379  1.00  0.00     0.163 HD
ENDBRANCH  28  31
ENDBRANCH  24  25
ENDBRANCH   2  24
TORSDOF 6
ENDMDL
MODEL 6
REMARK VINA RESULT:    -6.850     19.493     20.595
REMARK INTER + INTRA:          -9.884
REMARK INTER:                  -9.086
REMARK INTRA:                  -0.798
REMARK UNBOUND:                -0.632
REMARK SMILES CNC(=O)c1cc(Oc2ccc(NC(=O)Nc3ccc(Cl)c(C(F)(F)F)c3)cc2)ccn1
REMARK SMILES IDX 12 1 9 2 11 3 28 4 10 5 29 6 13 7 16 8 14 9 15 11 17 13
REMARK SMILES IDX 21 14 20 15 22 16 19 17 27 18 18 19 23 20 24 21 25 22 26 23
REMARK SMILES IDX 8 24 7 25 6 26 30 27 5 28 31 29 32 30 3 31 4 32 2 33 1 34
REMARK H PARENT 16 10 13 12 2 35
REMARK Flexibility Score: inf
ROOT
ATOM      1  C   UNL     1      95.730 -12.265  22.517  1.00  0.00     0.043 A 
ATOM      2  C   UNL     1      94.075 -14.455  22.885  1.00  0.00     0.127 A 
ATOM      3  C   UNL     1      95.195 -12.506  23.771  1.00  0.00     0.030 A 
ATOM      4  C   UNL     1      95.456 -13.096  21.443  1.00  0.00     0.030 A 
ATOM      5  C   UNL     1      94.361 -13.609  23.957  1.00  0.00     0.049 A 
ATOM      6  C   UNL     1      94.622 -14.199  21.628  1.00  0.00     0.049 A 
ENDROOT
BRANCH   1   7
ATOM      7  N   UNL     1      96.576 -11.146  22.329  1.00  0.00    -0.308 N 
ATOM      8  N   UNL     1      98.377  -9.701  22.389  1.00  0.00    -0.308 N 
ATOM      9  C   UNL     1      97.886 -10.964  22.802  1.00  0.00     0.323 C 
ATOM     10  H   UNL     1      97.739  -9.135  21.836  1.00  0.00     0.171 HD
ATOM     11  O   UNL     1      98.516 -11.773  23.473  1.00  0.00    -0.248 OA
ATOM     12  H   UNL     1      96.179 -10.386  21.782  1.00  0.00     0.171 HD
BRANCH   8  13
ATOM     13  C   UNL     1      99.623  -9.127  22.643  1.00  0.00     0.043 A 
ATOM     14  Cl  UNL     1     103.670  -7.286  23.431  1.00  0.00    -0.084 Cl
ATOM     15  C   UNL     1     102.114  -7.979  23.149  1.00  0.00     0.053 A 
ATOM     16  C   UNL     1     101.066  -7.798  24.052  1.00  0.00     0.076 A 
ATOM     17  C   UNL     1     101.917  -8.735  21.994  1.00  0.00     0.023 A 
ATOM     18  C   UNL     1      99.821  -8.371  23.799  1.00  0.00     0.040 A 
ATOM     19  C   UNL     1     100.671  -9.309  21.741  1.00  0.00     0.028 A 
BRANCH  16  20
ATOM     20  C   UNL     1     101.238  -6.996  25.302  1.00  0.00     0.417 C 
ATOM     21  F   UNL     1     102.429  -7.213  25.929  1.00  0.00    -0.166 F 
ATOM     22  F   UNL     1     101.180  -5.648  25.096  1.00  0.00    -0.166 F 
ATOM     23  F   UNL     1     100.276  -7.268  26.232  1.00  0.00    -0.166 F 
ENDBRANCH  16  20
ENDBRANCH   8  13
ENDBRANCH   1   7
BRANCH   2  24
ATOM     24  O   UNL     1      93.261 -15.531  23.067  1.00  0.00    -0.457 OA
BRANCH  24  25
ATOM     25  C   UNL     1      91.895 -15.308  23.088  1.00  0.00     0.131 A 
ATOM     26  C   UNL     1      91.255 -15.154  24.300  1.00  0.00     0.081 A 
ATOM     27  C   UNL     1      91.204 -15.241  21.897  1.00  0.00     0.067 A 
ATOM     28  C   UNL     1      89.888 -14.932  24.267  1.00  0.00     0.131 A 
ATOM     29  C   UNL     1      89.839 -15.015  21.971  1.00  0.00     0.116 A 
ATOM     30  N   UNL     1      89.161 -14.858  23.130  1.00  0.00    -0.251 NA
BRANCH  28  31
ATOM     31  C   UNL     1      89.145 -14.761  25.503  1.00  0.00     0.269 C 
ATOM     32  O   UNL     1      89.244 -13.709  26.162  1.00  0.00    -0.268 OA
ATOM     33  N   UNL     1      88.308 -15.813  25.894  1.00  0.00    -0.354 N 
ATOM     34  C   UNL     1      87.489 -15.785  27.084  1.00  0.00     0.143 C 
ATOM     35  H   UNL     1      88.246 -16.635  25.298  1.00  0.00     0.163 HD
ENDBRANCH  28  31
ENDBRANCH  24  25
ENDBRANCH   2  24
TORSDOF 6
ENDMDL
MODEL 7
REMARK VINA RESULT:    -6.809      5.705     11.662
REMARK INTER + INTRA:          -9.830
REMARK INTER:                  -8.790
REMARK INTRA:                  -1.040
REMARK UNBOUND:                -0.632
REMARK SMILES CNC(=O)c1cc(Oc2ccc(NC(=O)Nc3ccc(Cl)c(C(F)(F)F)c3)cc2)ccn1
REMARK SMILES IDX 12 1 9 2 11 3 28 4 10 5 29 6 13 7 16 8 14 9 15 11 17 13
REMARK SMILES IDX 21 14 20 15 22 16 19 17 27 18 18 19 23 20 24 21 25 22 26 23
REMARK SMILES IDX 8 24 7 25 6 26 30 27 5 28 31 29 32 30 3 31 4 32 2 33 1 34
REMARK H PARENT 16 10 13 12 2 35
REMARK Flexibility Score: inf
ROOT
ATOM      1  C   UNL     1      87.608  -0.909   9.754  1.00  0.00     0.043 A 
ATOM      2  C   UNL     1      86.387   0.969  11.383  1.00  0.00     0.127 A 
ATOM      3  C   UNL     1      87.276  -1.253  11.053  1.00  0.00     0.030 A 
ATOM      4  C   UNL     1      87.342   0.354   9.250  1.00  0.00     0.030 A 
ATOM      5  C   UNL     1      86.661  -0.308  11.874  1.00  0.00     0.049 A 
ATOM      6  C   UNL     1      86.727   1.300  10.071  1.00  0.00     0.049 A 
ENDROOT
BRANCH   1   7
ATOM      7  N   UNL     1      88.232  -1.868   8.922  1.00  0.00    -0.308 N 
ATOM      8  N   UNL     1      88.606  -3.597   7.436  1.00  0.00    -0.308 N 
ATOM      9  C   UNL     1      87.620  -2.835   8.107  1.00  0.00     0.323 C 
ATOM     10  H   UNL     1      89.572  -3.347   7.632  1.00  0.00     0.171 HD
ATOM     11  O   UNL     1      86.410  -3.001   7.991  1.00  0.00    -0.248 OA
ATOM     12  H   UNL     1      89.249  -1.849   8.918  1.00  0.00     0.171 HD
BRANCH   8  13
ATOM     13  C   UNL     1      88.431  -4.652   6.539  1.00  0.00     0.043 A 
ATOM     14  Cl  UNL     1      87.857  -8.038   3.608  1.00  0.00    -0.084 Cl
ATOM     15  C   UNL     1      88.081  -6.759   4.746  1.00  0.00     0.053 A 
ATOM     16  C   UNL     1      88.321  -7.024   6.094  1.00  0.00     0.076 A 
ATOM     17  C   UNL     1      88.015  -5.442   4.294  1.00  0.00     0.023 A 
ATOM     18  C   UNL     1      88.497  -5.970   6.991  1.00  0.00     0.040 A 
ATOM     19  C   UNL     1      88.191  -4.388   5.191  1.00  0.00     0.028 A 
BRANCH  16  20
ATOM     20  C   UNL     1      88.397  -8.422   6.619  1.00  0.00     0.417 C 
ATOM     21  F   UNL     1      89.318  -9.195   5.975  1.00  0.00    -0.166 F 
ATOM     22  F   UNL     1      88.731  -8.489   7.940  1.00  0.00    -0.166 F 
ATOM     23  F   UNL     1      87.211  -9.087   6.504  1.00  0.00    -0.166 F 
ENDBRANCH  16  20
ENDBRANCH   8  13
ENDBRANCH   1   7
BRANCH   2  24
ATOM     24  O   UNL     1      85.787   1.891  12.184  1.00  0.00    -0.457 OA
BRANCH  24  25
ATOM     25  C   UNL     1      86.483   3.057  12.456  1.00  0.00     0.131 A 
ATOM     26  C   UNL     1      87.776   2.976  12.928  1.00  0.00     0.081 A 
ATOM     27  C   UNL     1      85.869   4.273  12.246  1.00  0.00     0.067 A 
ATOM     28  C   UNL     1      88.430   4.171  13.183  1.00  0.00     0.131 A 
ATOM     29  C   UNL     1      86.607   5.410  12.531  1.00  0.00     0.116 A 
ATOM     30  N   UNL     1      87.877   5.390  12.996  1.00  0.00    -0.251 NA
BRANCH  28  31
ATOM     31  C   UNL     1      89.793   4.167  13.683  1.00  0.00     0.269 C 
ATOM     32  O   UNL     1      90.034   3.860  14.865  1.00  0.00    -0.268 OA
ATOM     33  N   UNL     1      90.806   4.496  12.774  1.00  0.00    -0.354 N 
ATOM     34  C   UNL     1      92.211   4.513  13.112  1.00  0.00     0.143 C 
ATOM     35  H   UNL     1      90.550   4.707  11.813  1.00  0.00     0.163 HD
ENDBRANCH  28  31
ENDBRANCH  24  25
ENDBRANCH   2  24
TORSDOF 6
ENDMDL
MODEL 8
REMARK VINA RESULT:    -6.784     18.672     21.173
REMARK INTER + INTRA:          -9.795
REMARK INTER:                  -8.856
REMARK INTRA:                  -0.939
REMARK UNBOUND:                -0.632
REMARK SMILES CNC(=O)c1cc(Oc2ccc(NC(=O)Nc3ccc(Cl)c(C(F)(F)F)c3)cc2)ccn1
REMARK SMILES IDX 12 1 9 2 11 3 28 4 10 5 29 6 13 7 16 8 14 9 15 11 17 13
REMARK SMILES IDX 21 14 20 15 22 16 19 17 27 18 18 19 23 20 24 21 25 22 26 23
REMARK SMILES IDX 8 24 7 25 6 26 30 27 5 28 31 29 32 30 3 31 4 32 2 33 1 34
REMARK H PARENT 16 10 13 12 2 35
REMARK Flexibility Score: inf
ROOT
ATOM      1  C   UNL     1      96.142 -13.614  25.433  1.00  0.00     0.043 A 
ATOM      2  C   UNL     1      93.810 -15.072  25.106  1.00  0.00     0.127 A 
ATOM      3  C   UNL     1      95.671 -13.861  24.154  1.00  0.00     0.030 A 
ATOM      4  C   UNL     1      95.472 -14.079  26.552  1.00  0.00     0.030 A 
ATOM      5  C   UNL     1      94.496 -14.595  23.989  1.00  0.00     0.049 A 
ATOM      6  C   UNL     1      94.297 -14.814  26.387  1.00  0.00     0.049 A 
ENDROOT
BRANCH   1   7
ATOM      7  N   UNL     1      97.333 -12.868  25.599  1.00  0.00    -0.308 N 
ATOM      8  N   UNL     1      98.865 -11.142  25.707  1.00  0.00    -0.308 N 
ATOM      9  C   UNL     1      97.515 -11.484  25.447  1.00  0.00     0.323 C 
ATOM     10  H   UNL     1      99.479 -11.914  25.953  1.00  0.00     0.171 HD
ATOM     11  O   UNL     1      96.639 -10.684  25.136  1.00  0.00    -0.248 OA
ATOM     12  H   UNL     1      98.154 -13.409  25.861  1.00  0.00     0.171 HD
BRANCH   8  13
ATOM     13  C   UNL     1      99.467  -9.884  25.667  1.00  0.00     0.043 A 
ATOM     14  Cl  UNL     1     101.413  -5.811  25.578  1.00  0.00    -0.084 Cl
ATOM     15  C   UNL     1     100.672  -7.370  25.589  1.00  0.00     0.053 A 
ATOM     16  C   UNL     1     100.444  -8.071  24.405  1.00  0.00     0.076 A 
ATOM     17  C   UNL     1     100.297  -7.925  26.811  1.00  0.00     0.023 A 
ATOM     18  C   UNL     1      99.842  -9.329  24.444  1.00  0.00     0.040 A 
ATOM     19  C   UNL     1      99.695  -9.183  26.851  1.00  0.00     0.028 A 
BRANCH  16  20
ATOM     20  C   UNL     1     100.829  -7.510  23.073  1.00  0.00     0.417 C 
ATOM     21  F   UNL     1     100.485  -8.311  22.025  1.00  0.00    -0.166 F 
ATOM     22  F   UNL     1     100.254  -6.302  22.806  1.00  0.00    -0.166 F 
ATOM     23  F   UNL     1     102.174  -7.311  22.960  1.00  0.00    -0.166 F 
ENDBRANCH  16  20
ENDBRANCH   8  13
ENDBRANCH   1   7
BRANCH   2  24
ATOM     24  O   UNL     1      92.665 -15.789  24.945  1.00  0.00    -0.457 OA
BRANCH  24  25
ATOM     25  C   UNL     1      91.471 -15.091  24.886  1.00  0.00     0.131 A 
ATOM     26  C   UNL     1      91.138 -14.422  23.727  1.00  0.00     0.081 A 
ATOM     27  C   UNL     1      90.640 -15.082  25.986  1.00  0.00     0.067 A 
ATOM     28  C   UNL     1      89.932 -13.739  23.718  1.00  0.00     0.131 A 
ATOM     29  C   UNL     1      89.456 -14.370  25.876  1.00  0.00     0.116 A 
ATOM     30  N   UNL     1      89.079 -13.696  24.766  1.00  0.00    -0.251 NA
BRANCH  28  31
ATOM     31  C   UNL     1      89.513 -13.011  22.533  1.00  0.00     0.269 C 
ATOM     32  O   UNL     1      90.227 -12.109  22.059  1.00  0.00    -0.268 OA
ATOM     33  N   UNL     1      88.296 -13.387  21.952  1.00  0.00    -0.354 N 
ATOM     34  C   UNL     1      87.756 -12.775  20.760  1.00  0.00     0.143 C 
ATOM     35  H   UNL     1      87.772 -14.152  22.368  1.00  0.00     0.163 HD
ENDBRANCH  28  31
ENDBRANCH  24  25
ENDBRANCH   2  24
TORSDOF 6
ENDMDL
MODEL 9
REMARK VINA RESULT:    -6.758     19.130     21.061
REMARK INTER + INTRA:          -9.760
REMARK INTER:                  -9.148
REMARK INTRA:                  -0.611
REMARK UNBOUND:                -0.632
REMARK SMILES CNC(=O)c1cc(Oc2ccc(NC(=O)Nc3ccc(Cl)c(C(F)(F)F)c3)cc2)ccn1
REMARK SMILES IDX 12 1 9 2 11 3 28 4 10 5 29 6 13 7 16 8 14 9 15 11 17 13
REMARK SMILES IDX 21 14 20 15 22 16 19 17 27 18 18 19 23 20 24 21 25 22 26 23
REMARK SMILES IDX 8 24 7 25 6 26 30 27 5 28 31 29 32 30 3 31 4 32 2 33 1 34
REMARK H PARENT 16 10 13 12 2 35
REMARK Flexibility Score: inf
ROOT
ATOM      1  C   UNL     1      97.177 -10.661  23.863  1.00  0.00     0.043 A 
ATOM      2  C   UNL     1      99.677  -9.525  23.507  1.00  0.00     0.127 A 
ATOM      3  C   UNL     1      97.287  -9.469  23.167  1.00  0.00     0.030 A 
ATOM      4  C   UNL     1      98.291 -11.298  24.384  1.00  0.00     0.030 A 
ATOM      5  C   UNL     1      98.546  -8.896  22.987  1.00  0.00     0.049 A 
ATOM      6  C   UNL     1      99.550 -10.726  24.206  1.00  0.00     0.049 A 
ENDROOT
BRANCH   1   7
ATOM      7  N   UNL     1      95.899 -11.241  24.044  1.00  0.00    -0.308 N 
ATOM      8  N   UNL     1      93.928 -12.398  23.708  1.00  0.00    -0.308 N 
ATOM      9  C   UNL     1      95.160 -12.008  23.128  1.00  0.00     0.323 C 
ATOM     10  H   UNL     1      93.763 -12.079  24.659  1.00  0.00     0.171 HD
ATOM     11  O   UNL     1      95.522 -12.300  21.994  1.00  0.00    -0.248 OA
ATOM     12  H   UNL     1      95.470 -11.078  24.952  1.00  0.00     0.171 HD
BRANCH   8  13
ATOM     13  C   UNL     1      92.904 -13.161  23.145  1.00  0.00     0.043 A 
ATOM     14  Cl  UNL     1      89.620 -15.652  21.304  1.00  0.00    -0.084 Cl
ATOM     15  C   UNL     1      90.859 -14.687  22.019  1.00  0.00     0.053 A 
ATOM     16  C   UNL     1      90.549 -13.609  22.849  1.00  0.00     0.076 A 
ATOM     17  C   UNL     1      92.190 -15.001  21.752  1.00  0.00     0.023 A 
ATOM     18  C   UNL     1      91.572 -12.847  23.413  1.00  0.00     0.040 A 
ATOM     19  C   UNL     1      93.214 -14.238  22.315  1.00  0.00     0.028 A 
BRANCH  16  20
ATOM     20  C   UNL     1      89.134 -13.239  23.159  1.00  0.00     0.417 C 
ATOM     21  F   UNL     1      89.020 -12.298  24.140  1.00  0.00    -0.166 F 
ATOM     22  F   UNL     1      88.460 -12.726  22.090  1.00  0.00    -0.166 F 
ATOM     23  F   UNL     1      88.396 -14.305  23.584  1.00  0.00    -0.166 F 
ENDBRANCH  16  20
ENDBRANCH   8  13
ENDBRANCH   1   7
BRANCH   2  24
ATOM     24  O   UNL     1     100.906  -8.966  23.333  1.00  0.00    -0.457 OA
BRANCH  24  25
ATOM     25  C   UNL     1     101.443  -8.976  22.057  1.00  0.00     0.131 A 
ATOM     26  C   UNL     1     101.946  -7.806  21.528  1.00  0.00     0.081 A 
ATOM     27  C   UNL     1     101.464 -10.155  21.344  1.00  0.00     0.067 A 
ATOM     28  C   UNL     1     102.473  -7.869  20.248  1.00  0.00     0.131 A 
ATOM     29  C   UNL     1     102.012 -10.114  20.072  1.00  0.00     0.116 A 
ATOM     30  N   UNL     1     102.520  -8.996  19.504  1.00  0.00    -0.251 NA
BRANCH  28  31
ATOM     31  C   UNL     1     103.022  -6.678  19.624  1.00  0.00     0.269 C 
ATOM     32  O   UNL     1     102.397  -6.090  18.722  1.00  0.00    -0.268 OA
ATOM     33  N   UNL     1     104.258  -6.222  20.099  1.00  0.00    -0.354 N 
ATOM     34  C   UNL     1     104.922  -5.040  19.598  1.00  0.00     0.143 C 
ATOM     35  H   UNL     1     104.705  -6.727  20.859  1.00  0.00     0.163 HD
ENDBRANCH  28  31
ENDBRANCH  24  25
ENDBRANCH   2  24
TORSDOF 6
ENDMDL
MODEL 10
REMARK VINA RESULT:    -6.741     17.665     20.163
REMARK INTER + INTRA:          -9.738
REMARK INTER:                  -8.855
REMARK INTRA:                  -0.883
REMARK UNBOUND:                -0.632
REMARK SMILES CNC(=O)c1cc(Oc2ccc(NC(=O)Nc3ccc(Cl)c(C(F)(F)F)c3)cc2)ccn1
REMARK SMILES IDX 12 1 9 2 11 3 28 4 10 5 29 6 13 7 16 8 14 9 15 11 17 13
REMARK SMILES IDX 21 14 20 15 22 16 19 17 27 18 18 19 23 20 24 21 25 22 26 23
REMARK SMILES IDX 8 24 7 25 6 26 30 27 5 28 31 29 32 30 3 31 4 32 2 33 1 34
REMARK H PARENT 16 10 13 12 2 35
REMARK Flexibility Score: inf
ROOT
ATOM      1  C   UNL     1      95.803 -12.293  22.573  1.00  0.00     0.043 A 
ATOM      2  C   UNL     1      94.183 -14.502  22.980  1.00  0.00     0.127 A 
ATOM      3  C   UNL     1      95.637 -13.209  21.548  1.00  0.00     0.030 A 
ATOM      4  C   UNL     1      95.176 -12.457  23.796  1.00  0.00     0.030 A 
ATOM      5  C   UNL     1      94.821 -14.322  21.752  1.00  0.00     0.049 A 
ATOM      6  C   UNL     1      94.360 -13.569  24.002  1.00  0.00     0.049 A 
ENDROOT
BRANCH   1   7
ATOM      7  N   UNL     1      96.631 -11.164  22.364  1.00  0.00    -0.308 N 
ATOM      8  N   UNL     1      98.415  -9.696  22.385  1.00  0.00    -0.308 N 
ATOM      9  C   UNL     1      97.947 -10.963  22.812  1.00  0.00     0.323 C 
ATOM     10  H   UNL     1      97.758  -9.140  21.842  1.00  0.00     0.171 HD
ATOM     11  O   UNL     1      98.600 -11.762  23.474  1.00  0.00    -0.248 OA
ATOM     12  H   UNL     1      96.214 -10.411  21.823  1.00  0.00     0.171 HD
BRANCH   8  13
ATOM     13  C   UNL     1      99.657  -9.105  22.613  1.00  0.00     0.043 A 
ATOM     14  Cl  UNL     1     103.695  -7.210  23.317  1.00  0.00    -0.084 Cl
ATOM     15  C   UNL     1     102.143  -7.923  23.067  1.00  0.00     0.053 A 
ATOM     16  C   UNL     1     101.094  -7.707  23.961  1.00  0.00     0.076 A 
ATOM     17  C   UNL     1     101.949  -8.730  21.946  1.00  0.00     0.023 A 
ATOM     18  C   UNL     1      99.851  -8.298  23.734  1.00  0.00     0.040 A 
ATOM     19  C   UNL     1     100.706  -9.321  21.718  1.00  0.00     0.028 A 
BRANCH  16  20
ATOM     20  C   UNL     1     101.262  -6.851  25.175  1.00  0.00     0.417 C 
ATOM     21  F   UNL     1     100.347  -7.109  26.154  1.00  0.00    -0.166 F 
ATOM     22  F   UNL     1     102.479  -6.991  25.775  1.00  0.00    -0.166 F 
ATOM     23  F   UNL     1     101.139  -5.521  24.896  1.00  0.00    -0.166 F 
ENDBRANCH  16  20
ENDBRANCH   8  13
ENDBRANCH   1   7
BRANCH   2  24
ATOM     24  O   UNL     1      93.388 -15.588  23.180  1.00  0.00    -0.457 OA
BRANCH  24  25
ATOM     25  C   UNL     1      92.032 -15.370  23.355  1.00  0.00     0.131 A 
ATOM     26  C   UNL     1      91.274 -14.943  22.286  1.00  0.00     0.081 A 
ATOM     27  C   UNL     1      91.470 -15.586  24.596  1.00  0.00     0.067 A 
ATOM     28  C   UNL     1      89.922 -14.741  22.513  1.00  0.00     0.131 A 
ATOM     29  C   UNL     1      90.109 -15.355  24.720  1.00  0.00     0.116 A 
ATOM     30  N   UNL     1      89.318 -14.936  23.706  1.00  0.00    -0.251 NA
BRANCH  28  31
ATOM     31  C   UNL     1      89.058 -14.291  21.435  1.00  0.00     0.269 C 
ATOM     32  O   UNL     1      88.852 -15.017  20.445  1.00  0.00    -0.268 OA
ATOM     33  N   UNL     1      88.463 -13.032  21.579  1.00  0.00    -0.354 N 
ATOM     34  C   UNL     1      87.563 -12.457  20.606  1.00  0.00     0.143 C 
ATOM     35  H   UNL     1      88.646 -12.500  22.425  1.00  0.00     0.163 HD
ENDBRANCH  28  31
ENDBRANCH  24  25
ENDBRANCH   2  24
TORSDOF 6
ENDMDL
MODEL 11
REMARK VINA RESULT:    -6.729     17.885     19.431
REMARK INTER + INTRA:          -9.721
REMARK INTER:                  -8.742
REMARK INTRA:                  -0.978
REMARK UNBOUND:                -0.632
REMARK SMILES CNC(=O)c1cc(Oc2ccc(NC(=O)Nc3ccc(Cl)c(C(F)(F)F)c3)cc2)ccn1
REMARK SMILES IDX 12 1 9 2 11 3 28 4 10 5 29 6 13 7 16 8 14 9 15 11 17 13
REMARK SMILES IDX 21 14 20 15 22 16 19 17 27 18 18 19 23 20 24 21 25 22 26 23
REMARK SMILES IDX 8 24 7 25 6 26 30 27 5 28 31 29 32 30 3 31 4 32 2 33 1 34
REMARK H PARENT 16 10 13 12 2 35
REMARK Flexibility Score: inf
ROOT
ATOM      1  C   UNL     1      95.462 -13.171  21.705  1.00  0.00     0.043 A 
ATOM      2  C   UNL     1      94.984 -15.403  20.138  1.00  0.00     0.127 A 
ATOM      3  C   UNL     1      94.803 -14.256  22.257  1.00  0.00     0.030 A 
ATOM      4  C   UNL     1      95.889 -13.178  20.388  1.00  0.00     0.030 A 
ATOM      5  C   UNL     1      94.561 -15.381  21.467  1.00  0.00     0.049 A 
ATOM      6  C   UNL     1      95.648 -14.302  19.598  1.00  0.00     0.049 A 
ENDROOT
BRANCH   1   7
ATOM      7  N   UNL     1      95.707 -12.030  22.507  1.00  0.00    -0.308 N 
ATOM      8  N   UNL     1      96.658 -10.524  23.977  1.00  0.00    -0.308 N 
ATOM      9  C   UNL     1      96.797 -11.791  23.360  1.00  0.00     0.323 C 
ATOM     10  H   UNL     1      95.826  -9.995  23.726  1.00  0.00     0.171 HD
ATOM     11  O   UNL     1      97.733 -12.560  23.547  1.00  0.00    -0.248 OA
ATOM     12  H   UNL     1      95.002 -11.299  22.452  1.00  0.00     0.171 HD
BRANCH   8  13
ATOM     13  C   UNL     1      97.511  -9.903  24.890  1.00  0.00     0.043 A 
ATOM     14  Cl  UNL     1     100.248  -7.903  27.873  1.00  0.00    -0.084 Cl
ATOM     15  C   UNL     1      99.217  -8.661  26.715  1.00  0.00     0.053 A 
ATOM     16  C   UNL     1      99.489  -8.594  25.349  1.00  0.00     0.076 A 
ATOM     17  C   UNL     1      98.091  -9.348  27.168  1.00  0.00     0.023 A 
ATOM     18  C   UNL     1      98.637  -9.215  24.436  1.00  0.00     0.040 A 
ATOM     19  C   UNL     1      97.238  -9.969  26.256  1.00  0.00     0.028 A 
BRANCH  16  20
ATOM     20  C   UNL     1     100.684  -7.866  24.822  1.00  0.00     0.417 C 
ATOM     21  F   UNL     1     100.779  -7.889  23.461  1.00  0.00    -0.166 F 
ATOM     22  F   UNL     1     100.709  -6.545  25.161  1.00  0.00    -0.166 F 
ATOM     23  F   UNL     1     101.858  -8.387  25.283  1.00  0.00    -0.166 F 
ENDBRANCH  16  20
ENDBRANCH   8  13
ENDBRANCH   1   7
BRANCH   2  24
ATOM     24  O   UNL     1      94.747 -16.501  19.368  1.00  0.00    -0.457 OA
BRANCH  24  25
ATOM     25  C   UNL     1      93.570 -16.536  18.641  1.00  0.00     0.131 A 
ATOM     26  C   UNL     1      92.373 -16.711  19.304  1.00  0.00     0.081 A 
ATOM     27  C   UNL     1      93.618 -16.392  17.271  1.00  0.00     0.067 A 
ATOM     28  C   UNL     1      91.223 -16.737  18.532  1.00  0.00     0.131 A 
ATOM     29  C   UNL     1      92.413 -16.432  16.589  1.00  0.00     0.116 A 
ATOM     30  N   UNL     1      91.212 -16.602  17.187  1.00  0.00    -0.251 NA
BRANCH  28  31
ATOM     31  C   UNL     1      89.925 -16.919  19.159  1.00  0.00     0.269 C 
ATOM     32  O   UNL     1      88.885 -16.915  18.475  1.00  0.00    -0.268 OA
ATOM     33  N   UNL     1      89.910 -17.118  20.544  1.00  0.00    -0.354 N 
ATOM     34  C   UNL     1      88.703 -17.336  21.308  1.00  0.00     0.143 C 
ATOM     35  H   UNL     1      90.795 -17.142  21.044  1.00  0.00     0.163 HD
ENDBRANCH  28  31
ENDBRANCH  24  25
ENDBRANCH   2  24
TORSDOF 6
ENDMDL
MODEL 12
REMARK VINA RESULT:    -6.707      5.740     12.027
REMARK INTER + INTRA:          -9.691
REMARK INTER:                  -8.855
REMARK INTRA:                  -0.836
REMARK UNBOUND:                -0.632
REMARK SMILES CNC(=O)c1cc(Oc2ccc(NC(=O)Nc3ccc(Cl)c(C(F)(F)F)c3)cc2)ccn1
REMARK SMILES IDX 12 1 9 2 11 3 28 4 10 5 29 6 13 7 16 8 14 9 15 11 17 13
REMARK SMILES IDX 21 14 20 15 22 16 19 17 27 18 18 19 23 20 24 21 25 22 26 23
REMARK SMILES IDX 8 24 7 25 6 26 30 27 5 28 31 29 32 30 3 31 4 32 2 33 1 34
REMARK H PARENT 16 10 13 12 2 35
REMARK Flexibility Score: inf
ROOT
ATOM      1  C   UNL     1      87.497  -0.803   9.494  1.00  0.00     0.043 A 
ATOM      2  C   UNL     1      86.310   1.218  10.969  1.00  0.00     0.127 A 
ATOM      3  C   UNL     1      87.032  -1.079  10.769  1.00  0.00     0.030 A 
ATOM      4  C   UNL     1      87.380   0.461   8.940  1.00  0.00     0.030 A 
ATOM      5  C   UNL     1      86.434  -0.061  11.513  1.00  0.00     0.049 A 
ATOM      6  C   UNL     1      86.783   1.479   9.683  1.00  0.00     0.049 A 
ENDROOT
BRANCH   1   7
ATOM      7  N   UNL     1      88.104  -1.836   8.741  1.00  0.00    -0.308 N 
ATOM      8  N   UNL     1      88.447  -3.704   7.426  1.00  0.00    -0.308 N 
ATOM      9  C   UNL     1      87.475  -2.888   8.053  1.00  0.00     0.323 C 
ATOM     10  H   UNL     1      89.416  -3.424   7.559  1.00  0.00     0.171 HD
ATOM     11  O   UNL     1      86.265  -3.076   8.000  1.00  0.00    -0.248 OA
ATOM     12  H   UNL     1      89.119  -1.807   8.697  1.00  0.00     0.171 HD
BRANCH   8  13
ATOM     13  C   UNL     1      88.254  -4.846   6.648  1.00  0.00     0.043 A 
ATOM     14  Cl  UNL     1      87.657  -8.562   4.155  1.00  0.00    -0.084 Cl
ATOM     15  C   UNL     1      87.868  -7.131   5.095  1.00  0.00     0.053 A 
ATOM     16  C   UNL     1      87.163  -5.963   4.805  1.00  0.00     0.076 A 
ATOM     17  C   UNL     1      88.766  -7.156   6.161  1.00  0.00     0.023 A 
ATOM     18  C   UNL     1      87.355  -4.821   5.582  1.00  0.00     0.040 A 
ATOM     19  C   UNL     1      88.960  -6.014   6.939  1.00  0.00     0.028 A 
BRANCH  16  20
ATOM     20  C   UNL     1      86.192  -5.894   3.670  1.00  0.00     0.417 C 
ATOM     21  F   UNL     1      85.171  -6.792   3.772  1.00  0.00    -0.166 F 
ATOM     22  F   UNL     1      85.589  -4.676   3.544  1.00  0.00    -0.166 F 
ATOM     23  F   UNL     1      86.781  -6.140   2.464  1.00  0.00    -0.166 F 
ENDBRANCH  16  20
ENDBRANCH   8  13
ENDBRANCH   1   7
BRANCH   2  24
ATOM     24  O   UNL     1      85.727   2.211  11.694  1.00  0.00    -0.457 OA
BRANCH  24  25
ATOM     25  C   UNL     1      86.557   3.144  12.293  1.00  0.00     0.131 A 
ATOM     26  C   UNL     1      86.644   4.411  11.758  1.00  0.00     0.081 A 
ATOM     27  C   UNL     1      87.277   2.784  13.413  1.00  0.00     0.067 A 
ATOM     28  C   UNL     1      87.487   5.308  12.395  1.00  0.00     0.131 A 
ATOM     29  C   UNL     1      88.092   3.753  13.976  1.00  0.00     0.116 A 
ATOM     30  N   UNL     1      88.216   5.011  13.493  1.00  0.00    -0.251 NA
BRANCH  28  31
ATOM     31  C   UNL     1      87.631   6.662  11.890  1.00  0.00     0.269 C 
ATOM     32  O   UNL     1      88.130   7.554  12.601  1.00  0.00    -0.268 OA
ATOM     33  N   UNL     1      87.208   6.899  10.576  1.00  0.00    -0.354 N 
ATOM     34  C   UNL     1      87.308   8.185   9.924  1.00  0.00     0.143 C 
ATOM     35  H   UNL     1      86.838   6.123  10.035  1.00  0.00     0.163 HD
ENDBRANCH  28  31
ENDBRANCH  24  25
ENDBRANCH   2  24
TORSDOF 6
ENDMDL
MODEL 13
REMARK VINA RESULT:    -6.694      1.813      2.561
REMARK INTER + INTRA:          -9.673
REMARK INTER:                  -8.881
REMARK INTRA:                  -0.792
REMARK UNBOUND:                -0.632
REMARK SMILES CNC(=O)c1cc(Oc2ccc(NC(=O)Nc3ccc(Cl)c(C(F)(F)F)c3)cc2)ccn1
REMARK SMILES IDX 12 1 9 2 11 3 28 4 10 5 29 6 13 7 16 8 14 9 15 11 17 13
REMARK SMILES IDX 21 14 20 15 22 16 19 17 27 18 18 19 23 20 24 21 25 22 26 23
REMARK SMILES IDX 8 24 7 25 6 26 30 27 5 28 31 29 32 30 3 31 4 32 2 33 1 34
REMARK H PARENT 16 10 13 12 2 35
REMARK Flexibility Score: inf
ROOT
ATOM      1  C   UNL     1      86.960  -2.934   7.726  1.00  0.00     0.043 A 
ATOM      2  C   UNL     1      87.949  -4.837   5.974  1.00  0.00     0.127 A 
ATOM      3  C   UNL     1      86.331  -3.124   6.507  1.00  0.00     0.030 A 
ATOM      4  C   UNL     1      88.072  -3.676   8.089  1.00  0.00     0.030 A 
ATOM      5  C   UNL     1      86.829  -4.083   5.624  1.00  0.00     0.049 A 
ATOM      6  C   UNL     1      88.571  -4.634   7.206  1.00  0.00     0.049 A 
ENDROOT
BRANCH   1   7
ATOM      7  N   UNL     1      86.454  -1.962   8.621  1.00  0.00    -0.308 N 
ATOM      8  N   UNL     1      86.278  -0.187  10.089  1.00  0.00    -0.308 N 
ATOM      9  C   UNL     1      87.162  -0.946   9.284  1.00  0.00     0.323 C 
ATOM     10  H   UNL     1      85.303  -0.475  10.073  1.00  0.00     0.171 HD
ATOM     11  O   UNL     1      88.367  -0.740   9.184  1.00  0.00    -0.248 OA
ATOM     12  H   UNL     1      85.454  -2.012   8.801  1.00  0.00     0.171 HD
BRANCH   8  13
ATOM     13  C   UNL     1      86.567   0.906  10.907  1.00  0.00     0.043 A 
ATOM     14  Cl  UNL     1      87.504   4.417  13.585  1.00  0.00    -0.084 Cl
ATOM     15  C   UNL     1      87.145   3.090  12.542  1.00  0.00     0.053 A 
ATOM     16  C   UNL     1      86.885   3.284  11.186  1.00  0.00     0.076 A 
ATOM     17  C   UNL     1      87.115   1.804  13.081  1.00  0.00     0.023 A 
ATOM     18  C   UNL     1      86.597   2.193  10.368  1.00  0.00     0.040 A 
ATOM     19  C   UNL     1      86.827   0.712  12.263  1.00  0.00     0.028 A 
BRANCH  16  20
ATOM     20  C   UNL     1      86.905   4.647  10.570  1.00  0.00     0.417 C 
ATOM     21  F   UNL     1      88.124   5.256  10.637  1.00  0.00    -0.166 F 
ATOM     22  F   UNL     1      86.574   4.650   9.247  1.00  0.00    -0.166 F 
ATOM     23  F   UNL     1      86.030   5.504  11.171  1.00  0.00    -0.166 F 
ENDBRANCH  16  20
ENDBRANCH   8  13
ENDBRANCH   1   7
BRANCH   2  24
ATOM     24  O   UNL     1      88.436  -5.772   5.112  1.00  0.00    -0.457 OA
BRANCH  24  25
ATOM     25  C   UNL     1      88.230  -7.105   5.425  1.00  0.00     0.131 A 
ATOM     26  C   UNL     1      87.033  -7.700   5.088  1.00  0.00     0.081 A 
ATOM     27  C   UNL     1      89.228  -7.808   6.065  1.00  0.00     0.067 A 
ATOM     28  C   UNL     1      86.878  -9.036   5.421  1.00  0.00     0.131 A 
ATOM     29  C   UNL     1      88.975  -9.140   6.355  1.00  0.00     0.116 A 
ATOM     30  N   UNL     1      87.820  -9.774   6.048  1.00  0.00    -0.251 NA
BRANCH  28  31
ATOM     31  C   UNL     1      85.644  -9.731   5.098  1.00  0.00     0.269 C 
ATOM     32  O   UNL     1      84.668  -9.110   4.638  1.00  0.00    -0.268 OA
ATOM     33  N   UNL     1      85.620 -11.116   5.306  1.00  0.00    -0.354 N 
ATOM     34  C   UNL     1      84.478 -11.950   5.011  1.00  0.00     0.143 C 
ATOM     35  H   UNL     1      86.459 -11.572   5.655  1.00  0.00     0.163 HD
ENDBRANCH  28  31
ENDBRANCH  24  25
ENDBRANCH   2  24
TORSDOF 6
ENDMDL
MODEL 14
REMARK VINA RESULT:    -6.691     19.257     22.172
REMARK INTER + INTRA:          -9.670
REMARK INTER:                  -9.216
REMARK INTRA:                  -0.453
REMARK UNBOUND:                -0.632
REMARK SMILES CNC(=O)c1cc(Oc2ccc(NC(=O)Nc3ccc(Cl)c(C(F)(F)F)c3)cc2)ccn1
REMARK SMILES IDX 12 1 9 2 11 3 28 4 10 5 29 6 13 7 16 8 14 9 15 11 17 13
REMARK SMILES IDX 21 14 20 15 22 16 19 17 27 18 18 19 23 20 24 21 25 22 26 23
REMARK SMILES IDX 8 24 7 25 6 26 30 27 5 28 31 29 32 30 3 31 4 32 2 33 1 34
REMARK H PARENT 16 10 13 12 2 35
REMARK Flexibility Score: inf
ROOT
ATOM      1  C   UNL     1      97.368 -10.914  23.363  1.00  0.00     0.043 A 
ATOM      2  C   UNL     1      99.733  -9.602  22.770  1.00  0.00     0.127 A 
ATOM      3  C   UNL     1      98.568 -11.595  23.480  1.00  0.00     0.030 A 
ATOM      4  C   UNL     1      97.325  -9.591  22.958  1.00  0.00     0.030 A 
ATOM      5  C   UNL     1      99.760 -10.934  23.181  1.00  0.00     0.049 A 
ATOM      6  C   UNL     1      98.516  -8.929  22.659  1.00  0.00     0.049 A 
ENDROOT
BRANCH   1   7
ATOM      7  N   UNL     1      96.160 -11.586  23.667  1.00  0.00    -0.308 N 
ATOM      8  N   UNL     1      94.173 -12.752  23.489  1.00  0.00    -0.308 N 
ATOM      9  C   UNL     1      95.258 -12.188  22.774  1.00  0.00     0.323 C 
ATOM     10  H   UNL     1      94.202 -12.642  24.500  1.00  0.00     0.171 HD
ATOM     11  O   UNL     1      95.385 -12.224  21.555  1.00  0.00    -0.248 OA
ATOM     12  H   UNL     1      95.923 -11.633  24.655  1.00  0.00     0.171 HD
BRANCH   8  13
ATOM     13  C   UNL     1      93.065 -13.437  22.992  1.00  0.00     0.043 A 
ATOM     14  Cl  UNL     1      89.501 -15.678  21.361  1.00  0.00    -0.084 Cl
ATOM     15  C   UNL     1      90.849 -14.807  21.997  1.00  0.00     0.053 A 
ATOM     16  C   UNL     1      90.669 -13.705  22.832  1.00  0.00     0.076 A 
ATOM     17  C   UNL     1      92.136 -15.224  21.659  1.00  0.00     0.023 A 
ATOM     18  C   UNL     1      91.777 -13.019  23.330  1.00  0.00     0.040 A 
ATOM     19  C   UNL     1      93.244 -14.539  22.157  1.00  0.00     0.028 A 
BRANCH  16  20
ATOM     20  C   UNL     1      89.306 -13.225  23.216  1.00  0.00     0.417 C 
ATOM     21  F   UNL     1      88.639 -12.609  22.199  1.00  0.00    -0.166 F 
ATOM     22  F   UNL     1      88.477 -14.223  23.637  1.00  0.00    -0.166 F 
ATOM     23  F   UNL     1      89.341 -12.319  24.237  1.00  0.00    -0.166 F 
ENDBRANCH  16  20
ENDBRANCH   8  13
ENDBRANCH   1   7
BRANCH   2  24
ATOM     24  O   UNL     1     100.896  -8.957  22.478  1.00  0.00    -0.457 OA
BRANCH  24  25
ATOM     25  C   UNL     1     101.389  -8.062  23.412  1.00  0.00     0.131 A 
ATOM     26  C   UNL     1     102.633  -8.280  23.965  1.00  0.00     0.081 A 
ATOM     27  C   UNL     1     100.625  -6.971  23.768  1.00  0.00     0.067 A 
ATOM     28  C   UNL     1     103.081  -7.355  24.894  1.00  0.00     0.131 A 
ATOM     29  C   UNL     1     101.162  -6.104  24.706  1.00  0.00     0.116 A 
ATOM     30  N   UNL     1     102.376  -6.269  25.280  1.00  0.00    -0.251 NA
BRANCH  28  31
ATOM     31  C   UNL     1     104.381  -7.518  25.519  1.00  0.00     0.269 C 
ATOM     32  O   UNL     1     104.924  -8.637  25.573  1.00  0.00    -0.268 OA
ATOM     33  N   UNL     1     104.992  -6.365  26.029  1.00  0.00    -0.354 N 
ATOM     34  C   UNL     1     106.293  -6.359  26.657  1.00  0.00     0.143 C 
ATOM     35  H   UNL     1     104.513  -5.474  25.928  1.00  0.00     0.163 HD
ENDBRANCH  28  31
ENDBRANCH  24  25
ENDBRANCH   2  24
TORSDOF 6
ENDMDL
MODEL 15
REMARK VINA RESULT:    -6.604      2.954      4.103
REMARK INTER + INTRA:          -9.552
REMARK INTER:                  -8.639
REMARK INTRA:                  -0.913
REMARK UNBOUND:                -0.632
REMARK SMILES CNC(=O)c1cc(Oc2ccc(NC(=O)Nc3ccc(Cl)c(C(F)(F)F)c3)cc2)ccn1
REMARK SMILES IDX 12 1 9 2 11 3 28 4 10 5 29 6 13 7 16 8 14 9 15 11 17 13
REMARK SMILES IDX 21 14 20 15 22 16 19 17 27 18 18 19 23 20 24 21 25 22 26 23
REMARK SMILES IDX 8 24 7 25 6 26 30 27 5 28 31 29 32 30 3 31 4 32 2 33 1 34
REMARK H PARENT 16 10 13 12 2 35
REMARK Flexibility Score: inf
ROOT
ATOM      1  C   UNL     1      88.635  -4.541   6.511  1.00  0.00     0.043 A 
ATOM      2  C   UNL     1      88.715  -7.140   5.560  1.00  0.00     0.127 A 
ATOM      3  C   UNL     1      87.556  -5.034   5.798  1.00  0.00     0.030 A 
ATOM      4  C   UNL     1      89.753  -5.319   6.760  1.00  0.00     0.030 A 
ATOM      5  C   UNL     1      87.595  -6.344   5.319  1.00  0.00     0.049 A 
ATOM      6  C   UNL     1      89.794  -6.628   6.280  1.00  0.00     0.049 A 
ENDROOT
BRANCH   1   7
ATOM      7  N   UNL     1      88.594  -3.212   6.997  1.00  0.00    -0.308 N 
ATOM      8  N   UNL     1      88.304  -1.359   8.346  1.00  0.00    -0.308 N 
ATOM      9  C   UNL     1      88.194  -2.769   8.269  1.00  0.00     0.323 C 
ATOM     10  H   UNL     1      88.641  -0.893   7.508  1.00  0.00     0.171 HD
ATOM     11  O   UNL     1      87.806  -3.491   9.181  1.00  0.00    -0.248 OA
ATOM     12  H   UNL     1      88.893  -2.497   6.339  1.00  0.00     0.171 HD
BRANCH   8  13
ATOM     13  C   UNL     1      88.010  -0.521   9.422  1.00  0.00     0.043 A 
ATOM     14  Cl  UNL     1      87.095   2.202  12.905  1.00  0.00    -0.084 Cl
ATOM     15  C   UNL     1      87.421   1.155  11.572  1.00  0.00     0.053 A 
ATOM     16  C   UNL     1      86.411   0.393  10.986  1.00  0.00     0.076 A 
ATOM     17  C   UNL     1      88.725   1.079  11.084  1.00  0.00     0.023 A 
ATOM     18  C   UNL     1      86.705  -0.445   9.910  1.00  0.00     0.040 A 
ATOM     19  C   UNL     1      89.020   0.241  10.008  1.00  0.00     0.028 A 
BRANCH  16  20
ATOM     20  C   UNL     1      85.001   0.444  11.480  1.00  0.00     0.417 C 
ATOM     21  F   UNL     1      84.856  -0.005  12.760  1.00  0.00    -0.166 F 
ATOM     22  F   UNL     1      84.470   1.701  11.478  1.00  0.00    -0.166 F 
ATOM     23  F   UNL     1      84.155  -0.315  10.725  1.00  0.00    -0.166 F 
ENDBRANCH  16  20
ENDBRANCH   8  13
ENDBRANCH   1   7
BRANCH   2  24
ATOM     24  O   UNL     1      88.754  -8.418   5.091  1.00  0.00    -0.457 OA
BRANCH  24  25
ATOM     25  C   UNL     1      88.033  -9.378   5.780  1.00  0.00     0.131 A 
ATOM     26  C   UNL     1      87.035 -10.070   5.126  1.00  0.00     0.081 A 
ATOM     27  C   UNL     1      88.329  -9.623   7.103  1.00  0.00     0.067 A 
ATOM     28  C   UNL     1      86.345 -11.022   5.858  1.00  0.00     0.131 A 
ATOM     29  C   UNL     1      87.581 -10.595   7.748  1.00  0.00     0.116 A 
ATOM     30  N   UNL     1      86.592 -11.303   7.157  1.00  0.00    -0.251 NA
BRANCH  28  31
ATOM     31  C   UNL     1      85.280 -11.791   5.238  1.00  0.00     0.269 C 
ATOM     32  O   UNL     1      84.183 -11.262   4.981  1.00  0.00    -0.268 OA
ATOM     33  N   UNL     1      85.558 -13.128   4.929  1.00  0.00    -0.354 N 
ATOM     34  C   UNL     1      84.613 -14.015   4.290  1.00  0.00     0.143 C 
ATOM     35  H   UNL     1      86.483 -13.495   5.135  1.00  0.00     0.163 HD
ENDBRANCH  28  31
ENDBRANCH  24  25
ENDBRANCH   2  24
TORSDOF 6
ENDMDL
MODEL 16
REMARK VINA RESULT:    -6.591      1.289      2.420
REMARK INTER + INTRA:          -9.535
REMARK INTER:                  -8.669
REMARK INTRA:                  -0.866
REMARK UNBOUND:                -0.632
REMARK SMILES CNC(=O)c1cc(Oc2ccc(NC(=O)Nc3ccc(Cl)c(C(F)(F)F)c3)cc2)ccn1
REMARK SMILES IDX 12 1 9 2 11 3 28 4 10 5 29 6 13 7 16 8 14 9 15 11 17 13
REMARK SMILES IDX 21 14 20 15 22 16 19 17 27 18 18 19 23 20 24 21 25 22 26 23
REMARK SMILES IDX 8 24 7 25 6 26 30 27 5 28 31 29 32 30 3 31 4 32 2 33 1 34
REMARK H PARENT 16 10 13 12 2 35
REMARK Flexibility Score: inf
ROOT
ATOM      1  C   UNL     1      86.909  -2.595   8.170  1.00  0.00     0.043 A 
ATOM      2  C   UNL     1      87.720  -4.386   6.220  1.00  0.00     0.127 A 
ATOM      3  C   UNL     1      86.205  -2.664   6.979  1.00  0.00     0.030 A 
ATOM      4  C   UNL     1      88.008  -3.403   8.407  1.00  0.00     0.030 A 
ATOM      5  C   UNL     1      86.613  -3.566   5.996  1.00  0.00     0.049 A 
ATOM      6  C   UNL     1      88.417  -4.305   7.425  1.00  0.00     0.049 A 
ENDROOT
BRANCH   1   7
ATOM      7  N   UNL     1      86.494  -1.680   9.167  1.00  0.00    -0.308 N 
ATOM      8  N   UNL     1      86.212   0.230  10.435  1.00  0.00    -0.308 N 
ATOM      9  C   UNL     1      86.848  -0.327   9.299  1.00  0.00     0.323 C 
ATOM     10  H   UNL     1      85.619  -0.402  10.968  1.00  0.00     0.171 HD
ATOM     11  O   UNL     1      87.595   0.287   8.546  1.00  0.00    -0.248 OA
ATOM     12  H   UNL     1      85.862  -2.056   9.869  1.00  0.00     0.171 HD
BRANCH   8  13
ATOM     13  C   UNL     1      86.292   1.534  10.925  1.00  0.00     0.043 A 
ATOM     14  Cl  UNL     1      86.512   5.758  12.505  1.00  0.00    -0.084 Cl
ATOM     15  C   UNL     1      86.451   4.140  11.906  1.00  0.00     0.053 A 
ATOM     16  C   UNL     1      87.595   3.344  11.853  1.00  0.00     0.076 A 
ATOM     17  C   UNL     1      85.228   3.633  11.469  1.00  0.00     0.023 A 
ATOM     18  C   UNL     1      87.516   2.041  11.363  1.00  0.00     0.040 A 
ATOM     19  C   UNL     1      85.148   2.330  10.979  1.00  0.00     0.028 A 
BRANCH  16  20
ATOM     20  C   UNL     1      88.926   3.850  12.310  1.00  0.00     0.417 C 
ATOM     21  F   UNL     1      89.304   5.012  11.703  1.00  0.00    -0.166 F 
ATOM     22  F   UNL     1      88.977   4.111  13.648  1.00  0.00    -0.166 F 
ATOM     23  F   UNL     1      89.933   2.962  12.068  1.00  0.00    -0.166 F 
ENDBRANCH  16  20
ENDBRANCH   8  13
ENDBRANCH   1   7
BRANCH   2  24
ATOM     24  O   UNL     1      88.119  -5.266   5.260  1.00  0.00    -0.457 OA
BRANCH  24  25
ATOM     25  C   UNL     1      87.531  -6.519   5.252  1.00  0.00     0.131 A 
ATOM     26  C   UNL     1      86.581  -6.812   4.296  1.00  0.00     0.081 A 
ATOM     27  C   UNL     1      87.910  -7.448   6.198  1.00  0.00     0.067 A 
ATOM     28  C   UNL     1      86.024  -8.081   4.330  1.00  0.00     0.131 A 
ATOM     29  C   UNL     1      87.294  -8.688   6.146  1.00  0.00     0.116 A 
ATOM     30  N   UNL     1      86.357  -9.029   5.233  1.00  0.00    -0.251 NA
BRANCH  28  31
ATOM     31  C   UNL     1      85.017  -8.463   3.355  1.00  0.00     0.269 C 
ATOM     32  O   UNL     1      85.303  -8.543   2.146  1.00  0.00    -0.268 OA
ATOM     33  N   UNL     1      83.737  -8.754   3.843  1.00  0.00    -0.354 N 
ATOM     34  C   UNL     1      82.637  -9.171   3.005  1.00  0.00     0.143 C 
ATOM     35  H   UNL     1      83.573  -8.701   4.845  1.00  0.00     0.163 HD
ENDBRANCH  28  31
ENDBRANCH  24  25
ENDBRANCH   2  24
TORSDOF 6
ENDMDL
MODEL 17
REMARK VINA RESULT:    -6.582      8.700     13.138
REMARK INTER + INTRA:          -9.523
REMARK INTER:                  -8.886
REMARK INTRA:                  -0.638
REMARK UNBOUND:                -0.632
REMARK SMILES CNC(=O)c1cc(Oc2ccc(NC(=O)Nc3ccc(Cl)c(C(F)(F)F)c3)cc2)ccn1
REMARK SMILES IDX 12 1 9 2 11 3 28 4 10 5 29 6 13 7 16 8 14 9 15 11 17 13
REMARK SMILES IDX 21 14 20 15 22 16 19 17 27 18 18 19 23 20 24 21 25 22 26 23
REMARK SMILES IDX 8 24 7 25 6 26 30 27 5 28 31 29 32 30 3 31 4 32 2 33 1 34
REMARK H PARENT 16 10 13 12 2 35
REMARK Flexibility Score: inf
ROOT
ATOM      1  C   UNL     1      93.261   5.128  14.325  1.00  0.00     0.043 A 
ATOM      2  C   UNL     1      91.240   4.934  12.441  1.00  0.00     0.127 A 
ATOM      3  C   UNL     1      92.789   3.877  13.964  1.00  0.00     0.030 A 
ATOM      4  C   UNL     1      92.745   6.284  13.762  1.00  0.00     0.030 A 
ATOM      5  C   UNL     1      91.771   3.779  13.015  1.00  0.00     0.049 A 
ATOM      6  C   UNL     1      91.727   6.187  12.814  1.00  0.00     0.049 A 
ENDROOT
BRANCH   1   7
ATOM      7  N   UNL     1      94.293   5.227  15.287  1.00  0.00    -0.308 N 
ATOM      8  N   UNL     1      96.328   5.077  16.370  1.00  0.00    -0.308 N 
ATOM      9  C   UNL     1      95.621   4.782  15.179  1.00  0.00     0.323 C 
ATOM     10  H   UNL     1      95.796   5.547  17.099  1.00  0.00     0.171 HD
ATOM     11  O   UNL     1      96.103   4.220  14.202  1.00  0.00    -0.248 OA
ATOM     12  H   UNL     1      94.034   5.678  16.161  1.00  0.00     0.171 HD
BRANCH   8  13
ATOM     13  C   UNL     1      97.661   4.807  16.680  1.00  0.00     0.043 A 
ATOM     14  Cl  UNL     1     101.987   3.951  17.650  1.00  0.00    -0.084 Cl
ATOM     15  C   UNL     1     100.327   4.268  17.300  1.00  0.00     0.053 A 
ATOM     16  C   UNL     1      99.313   3.856  18.165  1.00  0.00     0.076 A 
ATOM     17  C   UNL     1     100.008   4.949  16.126  1.00  0.00     0.023 A 
ATOM     18  C   UNL     1      97.980   4.126  17.855  1.00  0.00     0.040 A 
ATOM     19  C   UNL     1      98.675   5.219  15.816  1.00  0.00     0.028 A 
BRANCH  16  20
ATOM     20  C   UNL     1      99.613   3.122  19.432  1.00  0.00     0.417 C 
ATOM     21  F   UNL     1      98.514   2.912  20.213  1.00  0.00    -0.166 F 
ATOM     22  F   UNL     1     100.151   1.885  19.230  1.00  0.00    -0.166 F 
ATOM     23  F   UNL     1     100.504   3.787  20.222  1.00  0.00    -0.166 F 
ENDBRANCH  16  20
ENDBRANCH   8  13
ENDBRANCH   1   7
BRANCH   2  24
ATOM     24  O   UNL     1      90.246   4.838  11.515  1.00  0.00    -0.457 OA
BRANCH  24  25
ATOM     25  C   UNL     1      88.972   4.540  11.967  1.00  0.00     0.131 A 
ATOM     26  C   UNL     1      88.613   3.222  12.153  1.00  0.00     0.081 A 
ATOM     27  C   UNL     1      88.091   5.569  12.225  1.00  0.00     0.067 A 
ATOM     28  C   UNL     1      87.328   2.977  12.608  1.00  0.00     0.131 A 
ATOM     29  C   UNL     1      86.829   5.219  12.677  1.00  0.00     0.116 A 
ATOM     30  N   UNL     1      86.423   3.944  12.876  1.00  0.00    -0.251 NA
BRANCH  28  31
ATOM     31  C   UNL     1      86.877   1.614  12.827  1.00  0.00     0.269 C 
ATOM     32  O   UNL     1      87.377   0.918  13.730  1.00  0.00    -0.268 OA
ATOM     33  N   UNL     1      85.852   1.141  11.999  1.00  0.00    -0.354 N 
ATOM     34  C   UNL     1      85.280  -0.181  12.107  1.00  0.00     0.143 C 
ATOM     35  H   UNL     1      85.462   1.767  11.299  1.00  0.00     0.163 HD
ENDBRANCH  28  31
ENDBRANCH  24  25
ENDBRANCH   2  24
TORSDOF 6
ENDMDL
MODEL 18
REMARK VINA RESULT:    -6.542      8.258     15.344
REMARK INTER + INTRA:          -9.468
REMARK INTER:                  -8.662
REMARK INTRA:                  -0.806
REMARK UNBOUND:                -0.632
REMARK SMILES CNC(=O)c1cc(Oc2ccc(NC(=O)Nc3ccc(Cl)c(C(F)(F)F)c3)cc2)ccn1
REMARK SMILES IDX 12 1 9 2 11 3 28 4 10 5 29 6 13 7 16 8 14 9 15 11 17 13
REMARK SMILES IDX 21 14 20 15 22 16 19 17 27 18 18 19 23 20 24 21 25 22 26 23
REMARK SMILES IDX 8 24 7 25 6 26 30 27 5 28 31 29 32 30 3 31 4 32 2 33 1 34
REMARK H PARENT 16 10 13 12 2 35
REMARK Flexibility Score: inf
ROOT
ATOM      1  C   UNL     1      92.146   5.587  13.606  1.00  0.00     0.043 A 
ATOM      2  C   UNL     1      93.781   6.901  15.414  1.00  0.00     0.127 A 
ATOM      3  C   UNL     1      92.773   4.861  14.604  1.00  0.00     0.030 A 
ATOM      4  C   UNL     1      92.318   6.957  13.492  1.00  0.00     0.030 A 
ATOM      5  C   UNL     1      93.597   5.523  15.515  1.00  0.00     0.049 A 
ATOM      6  C   UNL     1      93.141   7.619  14.403  1.00  0.00     0.049 A 
ENDROOT
BRANCH   1   7
ATOM      7  N   UNL     1      91.311   4.915  12.682  1.00  0.00    -0.308 N 
ATOM      8  N   UNL     1      89.584   3.709  11.734  1.00  0.00    -0.308 N 
ATOM      9  C   UNL     1      90.104   4.244  12.938  1.00  0.00     0.323 C 
ATOM     10  H   UNL     1      90.135   3.879  10.897  1.00  0.00     0.171 HD
ATOM     11  O   UNL     1      89.573   4.134  14.038  1.00  0.00    -0.248 OA
ATOM     12  H   UNL     1      91.631   4.924  11.716  1.00  0.00     0.171 HD
BRANCH   8  13
ATOM     13  C   UNL     1      88.413   2.974  11.542  1.00  0.00     0.043 A 
ATOM     14  Cl  UNL     1      84.604   0.629  10.929  1.00  0.00    -0.084 Cl
ATOM     15  C   UNL     1      86.073   1.506  11.158  1.00  0.00     0.053 A 
ATOM     16  C   UNL     1      87.313   0.871  11.090  1.00  0.00     0.076 A 
ATOM     17  C   UNL     1      86.003   2.874  11.419  1.00  0.00     0.023 A 
ATOM     18  C   UNL     1      88.484   1.605  11.281  1.00  0.00     0.040 A 
ATOM     19  C   UNL     1      87.173   3.608  11.611  1.00  0.00     0.028 A 
BRANCH  16  20
ATOM     20  C   UNL     1      87.431  -0.594  10.815  1.00  0.00     0.417 C 
ATOM     21  F   UNL     1      86.904  -0.966   9.613  1.00  0.00    -0.166 F 
ATOM     22  F   UNL     1      88.720  -1.041  10.795  1.00  0.00    -0.166 F 
ATOM     23  F   UNL     1      86.792  -1.353  11.750  1.00  0.00    -0.166 F 
ENDBRANCH  16  20
ENDBRANCH   8  13
ENDBRANCH   1   7
BRANCH   2  24
ATOM     24  O   UNL     1      94.585   7.547  16.302  1.00  0.00    -0.457 OA
BRANCH  24  25
ATOM     25  C   UNL     1      95.428   8.529  15.812  1.00  0.00     0.131 A 
ATOM     26  C   UNL     1      95.149   9.853  16.076  1.00  0.00     0.081 A 
ATOM     27  C   UNL     1      96.531   8.161  15.071  1.00  0.00     0.067 A 
ATOM     28  C   UNL     1      96.024  10.797  15.564  1.00  0.00     0.131 A 
ATOM     29  C   UNL     1      97.346   9.180  14.603  1.00  0.00     0.116 A 
ATOM     30  N   UNL     1      97.119  10.494  14.832  1.00  0.00    -0.251 NA
BRANCH  28  31
ATOM     31  C   UNL     1      95.796  12.211  15.801  1.00  0.00     0.269 C 
ATOM     32  O   UNL     1      95.765  12.663  16.961  1.00  0.00    -0.268 OA
ATOM     33  N   UNL     1      95.638  13.028  14.675  1.00  0.00    -0.354 N 
ATOM     34  C   UNL     1      95.427  14.456  14.744  1.00  0.00     0.143 C 
ATOM     35  H   UNL     1      95.704  12.606  13.752  1.00  0.00     0.163 HD
ENDBRANCH  28  31
ENDBRANCH  24  25
ENDBRANCH   2  24
TORSDOF 6
ENDMDL
MODEL 19
REMARK VINA RESULT:    -6.541     19.222     22.563
REMARK INTER + INTRA:          -9.467
REMARK INTER:                  -8.634
REMARK INTRA:                  -0.833
REMARK UNBOUND:                -0.632
REMARK SMILES CNC(=O)c1cc(Oc2ccc(NC(=O)Nc3ccc(Cl)c(C(F)(F)F)c3)cc2)ccn1
REMARK SMILES IDX 12 1 9 2 11 3 28 4 10 5 29 6 13 7 16 8 14 9 15 11 17 13
REMARK SMILES IDX 21 14 20 15 22 16 19 17 27 18 18 19 23 20 24 21 25 22 26 23
REMARK SMILES IDX 8 24 7 25 6 26 30 27 5 28 31 29 32 30 3 31 4 32 2 33 1 34
REMARK H PARENT 16 10 13 12 2 35
REMARK Flexibility Score: inf
ROOT
ATOM      1  C   UNL     1      97.717   9.216  22.086  1.00  0.00     0.043 A 
ATOM      2  C   UNL     1     100.454   9.507  21.783  1.00  0.00     0.127 A 
ATOM      3  C   UNL     1      98.261  10.488  22.030  1.00  0.00     0.030 A 
ATOM      4  C   UNL     1      98.512   8.086  21.993  1.00  0.00     0.030 A 
ATOM      5  C   UNL     1      99.640  10.635  21.878  1.00  0.00     0.049 A 
ATOM      6  C   UNL     1      99.891   8.232  21.840  1.00  0.00     0.049 A 
ENDROOT
BRANCH   1   7
ATOM      7  N   UNL     1      96.318   9.068  22.241  1.00  0.00    -0.308 N 
ATOM      8  N   UNL     1      94.225   8.620  23.110  1.00  0.00    -0.308 N 
ATOM      9  C   UNL     1      95.616   8.617  23.371  1.00  0.00     0.323 C 
ATOM     10  H   UNL     1      93.947   8.933  22.182  1.00  0.00     0.171 HD
ATOM     11  O   UNL     1      96.127   8.271  24.431  1.00  0.00    -0.248 OA
ATOM     12  H   UNL     1      95.759   9.322  21.430  1.00  0.00     0.171 HD
BRANCH   8  13
ATOM     13  C   UNL     1      93.179   8.248  23.955  1.00  0.00     0.043 A 
ATOM     14  Cl  UNL     1      89.812   7.064  26.720  1.00  0.00    -0.084 Cl
ATOM     15  C   UNL     1      91.089   7.504  25.645  1.00  0.00     0.053 A 
ATOM     16  C   UNL     1      91.157   6.987  24.351  1.00  0.00     0.076 A 
ATOM     17  C   UNL     1      92.066   8.392  26.094  1.00  0.00     0.023 A 
ATOM     18  C   UNL     1      92.201   7.359  23.506  1.00  0.00     0.040 A 
ATOM     19  C   UNL     1      93.111   8.764  25.249  1.00  0.00     0.028 A 
BRANCH  16  20
ATOM     20  C   UNL     1      90.131   6.031  23.833  1.00  0.00     0.417 C 
ATOM     21  F   UNL     1      88.852   6.496  23.937  1.00  0.00    -0.166 F 
ATOM     22  F   UNL     1      90.294   5.721  22.515  1.00  0.00    -0.166 F 
ATOM     23  F   UNL     1      90.145   4.840  24.497  1.00  0.00    -0.166 F 
ENDBRANCH  16  20
ENDBRANCH   8  13
ENDBRANCH   1   7
BRANCH   2  24
ATOM     24  O   UNL     1     101.800   9.650  21.635  1.00  0.00    -0.457 OA
BRANCH  24  25
ATOM     25  C   UNL     1     102.609   9.256  22.687  1.00  0.00     0.131 A 
ATOM     26  C   UNL     1     103.432   8.161  22.531  1.00  0.00     0.081 A 
ATOM     27  C   UNL     1     102.575   9.969  23.867  1.00  0.00     0.067 A 
ATOM     28  C   UNL     1     104.223   7.809  23.613  1.00  0.00     0.131 A 
ATOM     29  C   UNL     1     103.404   9.536  24.889  1.00  0.00     0.116 A 
ATOM     30  N   UNL     1     104.231   8.470  24.791  1.00  0.00    -0.251 NA
BRANCH  28  31
ATOM     31  C   UNL     1     105.117   6.667  23.525  1.00  0.00     0.269 C 
ATOM     32  O   UNL     1     105.205   5.857  24.466  1.00  0.00    -0.268 OA
ATOM     33  N   UNL     1     105.841   6.516  22.336  1.00  0.00    -0.354 N 
ATOM     34  C   UNL     1     106.751   5.422  22.087  1.00  0.00     0.143 C 
ATOM     35  H   UNL     1     105.703   7.193  21.591  1.00  0.00     0.163 HD
ENDBRANCH  28  31
ENDBRANCH  24  25
ENDBRANCH   2  24
TORSDOF 6
ENDMDL
MODEL 20
REMARK VINA RESULT:    -6.446     18.859     20.654
REMARK INTER + INTRA:          -9.338
REMARK INTER:                  -8.706
REMARK INTRA:                  -0.632
REMARK UNBOUND:                -0.632
REMARK SMILES CNC(=O)c1cc(Oc2ccc(NC(=O)Nc3ccc(Cl)c(C(F)(F)F)c3)cc2)ccn1
REMARK SMILES IDX 12 1 9 2 11 3 28 4 10 5 29 6 13 7 16 8 14 9 15 11 17 13
REMARK SMILES IDX 21 14 20 15 22 16 19 17 27 18 18 19 23 20 24 21 25 22 26 23
REMARK SMILES IDX 8 24 7 25 6 26 30 27 5 28 31 29 32 30 3 31 4 32 2 33 1 34
REMARK H PARENT 16 10 13 12 2 35
REMARK Flexibility Score: inf
ROOT
ATOM      1  C   UNL     1      97.232 -10.722  23.771  1.00  0.00     0.043 A 
ATOM      2  C   UNL     1      99.768  -9.671  23.400  1.00  0.00     0.127 A 
ATOM      3  C   UNL     1      97.370  -9.480  23.173  1.00  0.00     0.030 A 
ATOM      4  C   UNL     1      98.335 -11.450  24.186  1.00  0.00     0.030 A 
ATOM      5  C   UNL     1      98.647  -8.950  22.987  1.00  0.00     0.049 A 
ATOM      6  C   UNL     1      99.612 -10.921  24.000  1.00  0.00     0.049 A 
ENDROOT
BRANCH   1   7
ATOM      7  N   UNL     1      95.937 -11.258  23.960  1.00  0.00    -0.308 N 
ATOM      8  N   UNL     1      93.940 -12.379  23.649  1.00  0.00    -0.308 N 
ATOM      9  C   UNL     1      95.191 -12.051  23.071  1.00  0.00     0.323 C 
ATOM     10  H   UNL     1      93.770 -12.008  24.580  1.00  0.00     0.171 HD
ATOM     11  O   UNL     1      95.563 -12.409  21.959  1.00  0.00    -0.248 OA
ATOM     12  H   UNL     1      95.498 -11.039  24.851  1.00  0.00     0.171 HD
BRANCH   8  13
ATOM     13  C   UNL     1      92.905 -13.142  23.108  1.00  0.00     0.043 A 
ATOM     14  Cl  UNL     1      89.583 -15.634  21.337  1.00  0.00    -0.084 Cl
ATOM     15  C   UNL     1      90.837 -14.669  22.026  1.00  0.00     0.053 A 
ATOM     16  C   UNL     1      90.544 -13.592  22.864  1.00  0.00     0.076 A 
ATOM     17  C   UNL     1      92.163 -14.982  21.729  1.00  0.00     0.023 A 
ATOM     18  C   UNL     1      91.579 -12.829  23.405  1.00  0.00     0.040 A 
ATOM     19  C   UNL     1      93.197 -14.218  22.270  1.00  0.00     0.028 A 
BRANCH  16  20
ATOM     20  C   UNL     1      89.136 -13.223  23.205  1.00  0.00     0.417 C 
ATOM     21  F   UNL     1      88.450 -12.674  22.163  1.00  0.00    -0.166 F 
ATOM     22  F   UNL     1      88.381 -14.283  23.615  1.00  0.00    -0.166 F 
ATOM     23  F   UNL     1      89.067 -12.308  24.215  1.00  0.00    -0.166 F 
ENDBRANCH  16  20
ENDBRANCH   8  13
ENDBRANCH   1   7
BRANCH   2  24
ATOM     24  O   UNL     1     101.014  -9.154  23.219  1.00  0.00    -0.457 OA
BRANCH  24  25
ATOM     25  C   UNL     1     101.469  -9.013  21.919  1.00  0.00     0.131 A 
ATOM     26  C   UNL     1     101.288 -10.047  21.025  1.00  0.00     0.081 A 
ATOM     27  C   UNL     1     102.092  -7.841  21.546  1.00  0.00     0.067 A 
ATOM     28  C   UNL     1     101.760  -9.855  19.736  1.00  0.00     0.131 A 
ATOM     29  C   UNL     1     102.528  -7.747  20.235  1.00  0.00     0.116 A 
ATOM     30  N   UNL     1     102.377  -8.729  19.316  1.00  0.00    -0.251 NA
BRANCH  28  31
ATOM     31  C   UNL     1     101.605 -10.899  18.738  1.00  0.00     0.269 C 
ATOM     32  O   UNL     1     102.254 -11.958  18.823  1.00  0.00    -0.268 OA
ATOM     33  N   UNL     1     100.686 -10.664  17.708  1.00  0.00    -0.354 N 
ATOM     34  C   UNL     1     100.403 -11.613  16.656  1.00  0.00     0.143 C 
ATOM     35  H   UNL     1     100.163  -9.793  17.709  1.00  0.00     0.163 HD
ENDBRANCH  28  31
ENDBRANCH  24  25
ENDBRANCH   2  24
TORSDOF 6
ENDMDL
