REMARK SMILES CNC(=O)c1cc(Oc2ccc(NC(=O)Nc3ccc(Cl)c(C(F)(F)F)c3)cc2)ccn1
REMARK SMILES IDX 12 1 9 2 11 3 28 4 10 5 29 6 13 7 16 8 14 9 15 11 17 13
REMARK SMILES IDX 21 14 20 15 22 16 19 17 27 18 18 19 23 20 24 21 25 22 26 23
REMARK SMILES IDX 8 24 7 25 6 26 30 27 5 28 31 29 32 30 3 31 4 32 2 33 1 34
REMARK H PARENT 16 10 13 12 2 35
REMARK Flexibility Score: inf
ROOT
ATOM      1  C   UNL     1      88.072   1.369   8.784  1.00  0.00     0.043 A 
ATOM      2  C   UNL     1      87.383   3.465  10.458  1.00  0.00     0.127 A 
ATOM      3  C   UNL     1      86.893   2.059   8.556  1.00  0.00     0.030 A 
ATOM      4  C   UNL     1      88.915   1.706   9.831  1.00  0.00     0.030 A 
ATOM      5  C   UNL     1      86.545   3.115   9.399  1.00  0.00     0.049 A 
ATOM      6  C   UNL     1      88.568   2.761  10.674  1.00  0.00     0.049 A 
ENDROOT
BRANCH   1   7
ATOM      7  N   UNL     1      88.424   0.299   7.929  1.00  0.00    -0.308 N 
ATOM      8  N   UNL     1      88.463  -1.734   6.832  1.00  0.00    -0.308 N 
ATOM      9  C   UNL     1      87.795  -0.951   7.804  1.00  0.00     0.323 C 
ATOM     10  H   UNL     1      89.267  -1.299   6.386  1.00  0.00     0.171 HD
ATOM     11  O   UNL     1      86.812  -1.316   8.440  1.00  0.00    -0.248 OA
ATOM     12  H   UNL     1      89.233   0.462   7.335  1.00  0.00     0.171 HD
BRANCH   8  13
ATOM     13  C   UNL     1      88.168  -3.029   6.404  1.00  0.00     0.043 A 
ATOM     14  Cl  UNL     1      87.241  -7.233   5.044  1.00  0.00    -0.084 Cl
ATOM     15  C   UNL     1      87.578  -5.617   5.550  1.00  0.00     0.053 A 
ATOM     16  C   UNL     1      86.902  -4.530   4.997  1.00  0.00     0.076 A 
ATOM     17  C   UNL     1      88.549  -5.411   6.529  1.00  0.00     0.023 A 
ATOM     18  C   UNL     1      87.196  -3.235   5.424  1.00  0.00     0.040 A 
ATOM     19  C   UNL     1      88.844  -4.116   6.957  1.00  0.00     0.028 A 
BRANCH  16  20
ATOM     20  C   UNL     1      85.856  -4.709   3.944  1.00  0.00     0.417 C 
ATOM     21  F   UNL     1      85.298  -3.536   3.526  1.00  0.00    -0.166 F 
ATOM     22  F   UNL     1      86.322  -5.309   2.811  1.00  0.00    -0.166 F 
ATOM     23  F   UNL     1      84.815  -5.482   4.369  1.00  0.00    -0.166 F 
ENDBRANCH  16  20
ENDBRANCH   8  13
ENDBRANCH   1   7
BRANCH   2  24
ATOM     24  O   UNL     1      87.043   4.495  11.281  1.00  0.00    -0.457 OA
BRANCH  24  25
ATOM     25  C   UNL     1      87.722   5.692  11.129  1.00  0.00     0.131 A 
ATOM     26  C   UNL     1      87.613   6.383   9.941  1.00  0.00     0.081 A 
ATOM     27  C   UNL     1      88.492   6.168  12.169  1.00  0.00     0.067 A 
ATOM     28  C   UNL     1      88.310   7.576   9.839  1.00  0.00     0.131 A 
ATOM     29  C   UNL     1      89.150   7.370  11.968  1.00  0.00     0.116 A 
ATOM     30  N   UNL     1      89.079   8.089  10.824  1.00  0.00    -0.251 NA
BRANCH  28  31
ATOM     31  C   UNL     1      88.244   8.360   8.618  1.00  0.00     0.269 C 
ATOM     32  O   UNL     1      87.195   8.402   7.948  1.00  0.00    -0.268 OA
ATOM     33  N   UNL     1      89.393   9.072   8.255  1.00  0.00    -0.354 N 
ATOM     34  C   UNL     1      89.477   9.914   7.084  1.00  0.00     0.143 C 
ATOM     35  H   UNL     1      90.209   9.023   8.859  1.00  0.00     0.163 HD
ENDBRANCH  28  31
ENDBRANCH  24  25
ENDBRANCH   2  24
TORSDOF 6
