MODEL 1
REMARK VINA RESULT:    -7.051      0.000      0.000
REMARK INTER + INTRA:         -12.128
REMARK INTER:                 -10.841
REMARK INTRA:                  -1.286
REMARK UNBOUND:                -1.779
REMARK SMILES [O-]B([O-])C([C]c1[c][c][c]c([C]([O-])[O-])[c]1)[N-][C]([O-])[C]c1[c][c][c][c][c]1
REMARK SMILES IDX 4 1 5 2 6 3 7 4 14 5 8 6 10 7 9 8 11 9 12 10 13 11 2 12 1 13
REMARK SMILES IDX 3 14 15 15 16 16 17 17 18 18 19 19 20 20 24 21 21 22 23 23
REMARK SMILES IDX 22 24
REMARK H PARENT
REMARK INDEX MAP 2 1 1 2 9 3 8 4 11 5 10 6 13 7 12 8 3 9 4 10 5 11 6 12 7 13
REMARK INDEX MAP 14 14 24 15 22 16 23 17 21 18 15 19 16 20 20 21 17 22 19 23
REMARK INDEX MAP 18 24
REMARK Flexibility Score: inf
ROOT
ATOM      1  C   UNL     1       4.851  -2.167  -0.399  1.00  0.00    -0.185 C 
ENDROOT
BRANCH   1   2
ATOM      2  C   UNL     1       5.446  -0.758  -0.226  1.00  0.00    -0.012 C 
BRANCH   2   3
ATOM      3  C   UNL     1       5.221   0.018   1.085  1.00  0.00    -0.026 A 
ATOM      4  C   UNL     1       6.426   0.434   1.950  1.00  0.00    -0.005 A 
ATOM      5  C   UNL     1       3.792   0.378   1.532  1.00  0.00    -0.012 A 
ATOM      6  C   UNL     1       6.201   1.210   3.261  1.00  0.00    -0.001 A 
ATOM      7  C   UNL     1       3.567   1.153   2.843  1.00  0.00    -0.060 A 
ATOM      8  C   UNL     1       4.771   1.570   3.707  1.00  0.00    -0.007 A 
BRANCH   7   9
ATOM      9  C   UNL     1       2.138   1.513   3.289  1.00  0.00    -0.203 C 
ATOM     10  O   UNL     1       0.930   1.030   2.465  1.00  0.00    -0.861 OA
ATOM     11  O   UNL     1       1.916   2.355   4.560  1.00  0.00    -0.861 OA
ENDBRANCH   7   9
ENDBRANCH   2   3
ENDBRANCH   1   2
BRANCH   1  12
ATOM     12  B   UNL     1       3.402  -2.336  -0.893  1.00  0.00    -0.139 C 
ATOM     13  O   UNL     1       3.130  -2.854  -2.318  1.00  0.00    -0.894 OA
ATOM     14  O   UNL     1       2.226  -1.988   0.037  1.00  0.00    -0.894 OA
ENDBRANCH   1  12
BRANCH   1  15
ATOM     15  N   UNL     1       5.705  -3.408  -0.077  1.00  0.00    -0.678 NA
BRANCH  15  16
ATOM     16  C   UNL     1       6.438  -4.153  -1.208  1.00  0.00    -0.237 C 
ATOM     17  O   UNL     1       5.647  -5.055  -2.175  1.00  0.00    -0.867 OA
BRANCH  16  18
ATOM     18  C   UNL     1       7.961  -3.997  -1.372  1.00  0.00    -0.018 C 
BRANCH  18  19
ATOM     19  C   UNL     1       8.629  -2.636  -1.098  1.00  0.00    -0.026 A 
ATOM     20  C   UNL     1       8.944  -1.684  -2.267  1.00  0.00    -0.004 A 
ATOM     21  C   UNL     1       8.982  -2.229   0.344  1.00  0.00    -0.004 A 
ATOM     22  C   UNL     1       9.612  -0.324  -1.993  1.00  0.00    -0.000 A 
ATOM     23  C   UNL     1       9.650  -0.869   0.618  1.00  0.00    -0.000 A 
ATOM     24  C   UNL     1       9.965   0.084  -0.550  1.00  0.00    -0.000 A 
ENDBRANCH  18  19
ENDBRANCH  16  18
ENDBRANCH  15  16
ENDBRANCH   1  15
TORSDOF 8
ENDMDL
MODEL 2
REMARK VINA RESULT:    -7.036      2.171      6.032
REMARK INTER + INTRA:         -12.107
REMARK INTER:                 -10.213
REMARK INTRA:                  -1.894
REMARK UNBOUND:                -1.779
REMARK SMILES [O-]B([O-])C([C]c1[c][c][c]c([C]([O-])[O-])[c]1)[N-][C]([O-])[C]c1[c][c][c][c][c]1
REMARK SMILES IDX 4 1 5 2 6 3 7 4 14 5 8 6 10 7 9 8 11 9 12 10 13 11 2 12 1 13
REMARK SMILES IDX 3 14 15 15 16 16 17 17 18 18 19 19 20 20 24 21 21 22 23 23
REMARK SMILES IDX 22 24
REMARK H PARENT
REMARK INDEX MAP 2 1 1 2 9 3 8 4 11 5 10 6 13 7 12 8 3 9 4 10 5 11 6 12 7 13
REMARK INDEX MAP 14 14 24 15 22 16 23 17 21 18 15 19 16 20 20 21 17 22 19 23
REMARK INDEX MAP 18 24
REMARK Flexibility Score: inf
ROOT
ATOM      1  C   UNL     1       3.289   0.474   2.887  1.00  0.00    -0.185 C 
ENDROOT
BRANCH   1   2
ATOM      2  C   UNL     1       4.101   0.973   1.679  1.00  0.00    -0.012 C 
BRANCH   2   3
ATOM      3  C   UNL     1       4.997  -0.005   0.896  1.00  0.00    -0.026 A 
ATOM      4  C   UNL     1       6.529   0.071   1.040  1.00  0.00    -0.005 A 
ATOM      5  C   UNL     1       4.363  -1.059  -0.029  1.00  0.00    -0.012 A 
ATOM      6  C   UNL     1       7.425  -0.907   0.257  1.00  0.00    -0.001 A 
ATOM      7  C   UNL     1       5.259  -2.037  -0.812  1.00  0.00    -0.060 A 
ATOM      8  C   UNL     1       6.789  -1.961  -0.669  1.00  0.00    -0.007 A 
BRANCH   7   9
ATOM      9  C   UNL     1       4.623  -3.091  -1.738  1.00  0.00    -0.203 C 
ATOM     10  O   UNL     1       5.384  -4.389  -2.062  1.00  0.00    -0.861 OA
ATOM     11  O   UNL     1       3.226  -2.846  -2.339  1.00  0.00    -0.861 OA
ENDBRANCH   7   9
ENDBRANCH   2   3
ENDBRANCH   1   2
BRANCH   1  12
ATOM     12  B   UNL     1       2.024   1.233   3.331  1.00  0.00    -0.139 C 
ATOM     13  O   UNL     1       2.069   2.149   4.569  1.00  0.00    -0.894 OA
ATOM     14  O   UNL     1       0.714   1.076   2.537  1.00  0.00    -0.894 OA
ENDBRANCH   1  12
BRANCH   1  15
ATOM     15  N   UNL     1       3.741  -0.783   3.653  1.00  0.00    -0.678 NA
BRANCH  15  16
ATOM     16  C   UNL     1       4.408  -0.645   5.035  1.00  0.00    -0.237 C 
ATOM     17  O   UNL     1       4.189  -1.729   6.107  1.00  0.00    -0.867 OA
BRANCH  16  18
ATOM     18  C   UNL     1       5.293   0.576   5.344  1.00  0.00    -0.018 C 
BRANCH  18  19
ATOM     19  C   UNL     1       6.671   0.718   4.669  1.00  0.00    -0.026 A 
ATOM     20  C   UNL     1       7.596  -0.506   4.542  1.00  0.00    -0.004 A 
ATOM     21  C   UNL     1       7.122   2.085   4.123  1.00  0.00    -0.004 A 
ATOM     22  C   UNL     1       8.973  -0.364   3.868  1.00  0.00    -0.000 A 
ATOM     23  C   UNL     1       8.500   2.227   3.448  1.00  0.00    -0.000 A 
ATOM     24  C   UNL     1       9.425   1.003   3.321  1.00  0.00    -0.000 A 
ENDBRANCH  18  19
ENDBRANCH  16  18
ENDBRANCH  15  16
ENDBRANCH   1  15
TORSDOF 8
ENDMDL
MODEL 3
REMARK VINA RESULT:    -6.921      2.657      4.338
REMARK INTER + INTRA:         -11.937
REMARK INTER:                  -9.452
REMARK INTRA:                  -2.485
REMARK UNBOUND:                -1.779
REMARK SMILES [O-]B([O-])C([C]c1[c][c][c]c([C]([O-])[O-])[c]1)[N-][C]([O-])[C]c1[c][c][c][c][c]1
REMARK SMILES IDX 4 1 5 2 6 3 7 4 14 5 8 6 10 7 9 8 11 9 12 10 13 11 2 12 1 13
REMARK SMILES IDX 3 14 15 15 16 16 17 17 18 18 19 19 20 20 24 21 21 22 23 23
REMARK SMILES IDX 22 24
REMARK H PARENT
REMARK INDEX MAP 2 1 1 2 9 3 8 4 11 5 10 6 13 7 12 8 3 9 4 10 5 11 6 12 7 13
REMARK INDEX MAP 14 14 24 15 22 16 23 17 21 18 15 19 16 20 20 21 17 22 19 23
REMARK INDEX MAP 18 24
REMARK Flexibility Score: inf
ROOT
ATOM      1  C   UNL     1       2.930   0.853   1.803  1.00  0.00    -0.185 C 
ENDROOT
BRANCH   1   2
ATOM      2  C   UNL     1       4.210   1.558   2.288  1.00  0.00    -0.012 C 
BRANCH   2   3
ATOM      3  C   UNL     1       5.088   0.901   3.370  1.00  0.00    -0.026 A 
ATOM      4  C   UNL     1       6.596   1.206   3.426  1.00  0.00    -0.005 A 
ATOM      5  C   UNL     1       4.458  -0.059   4.395  1.00  0.00    -0.012 A 
ATOM      6  C   UNL     1       7.474   0.550   4.508  1.00  0.00    -0.001 A 
ATOM      7  C   UNL     1       5.336  -0.715   5.477  1.00  0.00    -0.060 A 
ATOM      8  C   UNL     1       6.844  -0.411   5.533  1.00  0.00    -0.007 A 
BRANCH   7   9
ATOM      9  C   UNL     1       4.705  -1.676   6.502  1.00  0.00    -0.203 C 
ATOM     10  O   UNL     1       3.926  -1.114   7.705  1.00  0.00    -0.861 OA
ATOM     11  O   UNL     1       4.853  -3.199   6.324  1.00  0.00    -0.861 OA
ENDBRANCH   7   9
ENDBRANCH   2   3
ENDBRANCH   1   2
BRANCH   1  12
ATOM     12  B   UNL     1       1.694   0.784   2.720  1.00  0.00    -0.139 C 
ATOM     13  O   UNL     1       0.786  -0.460   2.696  1.00  0.00    -0.894 OA
ATOM     14  O   UNL     1       1.368   1.958   3.662  1.00  0.00    -0.894 OA
ENDBRANCH   1  12
BRANCH   1  15
ATOM     15  N   UNL     1       2.884   0.217   0.401  1.00  0.00    -0.678 NA
BRANCH  15  16
ATOM     16  C   UNL     1       3.283  -1.258   0.212  1.00  0.00    -0.237 C 
ATOM     17  O   UNL     1       2.816  -2.028  -1.038  1.00  0.00    -0.867 OA
BRANCH  16  18
ATOM     18  C   UNL     1       4.149  -1.964   1.271  1.00  0.00    -0.018 C 
BRANCH  18  19
ATOM     19  C   UNL     1       5.677  -1.766   1.274  1.00  0.00    -0.026 A 
ATOM     20  C   UNL     1       6.553  -2.554   2.266  1.00  0.00    -0.004 A 
ATOM     21  C   UNL     1       6.326  -0.781   0.286  1.00  0.00    -0.004 A 
ATOM     22  C   UNL     1       8.080  -2.356   2.269  1.00  0.00    -0.000 A 
ATOM     23  C   UNL     1       7.854  -0.583   0.288  1.00  0.00    -0.000 A 
ATOM     24  C   UNL     1       8.731  -1.370   1.280  1.00  0.00    -0.000 A 
ENDBRANCH  18  19
ENDBRANCH  16  18
ENDBRANCH  15  16
ENDBRANCH   1  15
TORSDOF 8
ENDMDL
MODEL 4
REMARK VINA RESULT:    -6.914      2.441      6.669
REMARK INTER + INTRA:         -11.927
REMARK INTER:                 -10.838
REMARK INTRA:                  -1.089
REMARK UNBOUND:                -1.779
REMARK SMILES [O-]B([O-])C([C]c1[c][c][c]c([C]([O-])[O-])[c]1)[N-][C]([O-])[C]c1[c][c][c][c][c]1
REMARK SMILES IDX 4 1 5 2 6 3 7 4 14 5 8 6 10 7 9 8 11 9 12 10 13 11 2 12 1 13
REMARK SMILES IDX 3 14 15 15 16 16 17 17 18 18 19 19 20 20 24 21 21 22 23 23
REMARK SMILES IDX 22 24
REMARK H PARENT
REMARK INDEX MAP 2 1 1 2 9 3 8 4 11 5 10 6 13 7 12 8 3 9 4 10 5 11 6 12 7 13
REMARK INDEX MAP 14 14 24 15 22 16 23 17 21 18 15 19 16 20 20 21 17 22 19 23
REMARK INDEX MAP 18 24
REMARK Flexibility Score: inf
ROOT
ATOM      1  C   UNL     1       3.390   0.633   2.904  1.00  0.00    -0.185 C 
ENDROOT
BRANCH   1   2
ATOM      2  C   UNL     1       4.340  -0.576   2.845  1.00  0.00    -0.012 C 
BRANCH   2   3
ATOM      3  C   UNL     1       5.106  -0.892   1.547  1.00  0.00    -0.026 A 
ATOM      4  C   UNL     1       6.463  -0.217   1.270  1.00  0.00    -0.005 A 
ATOM      5  C   UNL     1       4.516  -1.881   0.526  1.00  0.00    -0.012 A 
ATOM      6  C   UNL     1       7.229  -0.533  -0.028  1.00  0.00    -0.001 A 
ATOM      7  C   UNL     1       5.282  -2.197  -0.772  1.00  0.00    -0.060 A 
ATOM      8  C   UNL     1       6.638  -1.523  -1.050  1.00  0.00    -0.007 A 
BRANCH   7   9
ATOM      9  C   UNL     1       4.691  -3.187  -1.794  1.00  0.00    -0.203 C 
ATOM     10  O   UNL     1       5.462  -4.469  -2.158  1.00  0.00    -0.861 OA
ATOM     11  O   UNL     1       3.328  -2.895  -2.450  1.00  0.00    -0.861 OA
ENDBRANCH   7   9
ENDBRANCH   2   3
ENDBRANCH   1   2
BRANCH   1  12
ATOM     12  B   UNL     1       1.873   0.429   2.730  1.00  0.00    -0.139 C 
ATOM     13  O   UNL     1       0.904   1.599   2.986  1.00  0.00    -0.894 OA
ATOM     14  O   UNL     1       1.325  -0.944   2.300  1.00  0.00    -0.894 OA
ENDBRANCH   1  12
BRANCH   1  15
ATOM     15  N   UNL     1       3.955   2.047   3.137  1.00  0.00    -0.678 NA
BRANCH  15  16
ATOM     16  C   UNL     1       4.169   2.564   4.572  1.00  0.00    -0.237 C 
ATOM     17  O   UNL     1       3.083   3.417   5.253  1.00  0.00    -0.867 OA
BRANCH  16  18
ATOM     18  C   UNL     1       5.469   2.228   5.325  1.00  0.00    -0.018 C 
BRANCH  18  19
ATOM     19  C   UNL     1       6.820   2.747   4.799  1.00  0.00    -0.026 A 
ATOM     20  C   UNL     1       7.294   4.167   5.163  1.00  0.00    -0.004 A 
ATOM     21  C   UNL     1       7.697   1.848   3.908  1.00  0.00    -0.004 A 
ATOM     22  C   UNL     1       8.645   4.686   4.638  1.00  0.00    -0.000 A 
ATOM     23  C   UNL     1       9.048   2.368   3.382  1.00  0.00    -0.000 A 
ATOM     24  C   UNL     1       9.522   3.787   3.747  1.00  0.00    -0.000 A 
ENDBRANCH  18  19
ENDBRANCH  16  18
ENDBRANCH  15  16
ENDBRANCH   1  15
TORSDOF 8
ENDMDL
MODEL 5
REMARK VINA RESULT:    -6.899      1.497      2.118
REMARK INTER + INTRA:         -11.905
REMARK INTER:                 -10.777
REMARK INTRA:                  -1.128
REMARK UNBOUND:                -1.779
REMARK SMILES [O-]B([O-])C([C]c1[c][c][c]c([C]([O-])[O-])[c]1)[N-][C]([O-])[C]c1[c][c][c][c][c]1
REMARK SMILES IDX 4 1 5 2 6 3 7 4 14 5 8 6 10 7 9 8 11 9 12 10 13 11 2 12 1 13
REMARK SMILES IDX 3 14 15 15 16 16 17 17 18 18 19 19 20 20 24 21 21 22 23 23
REMARK SMILES IDX 22 24
REMARK H PARENT
REMARK INDEX MAP 2 1 1 2 9 3 8 4 11 5 10 6 13 7 12 8 3 9 4 10 5 11 6 12 7 13
REMARK INDEX MAP 14 14 24 15 22 16 23 17 21 18 15 19 16 20 20 21 17 22 19 23
REMARK INDEX MAP 18 24
REMARK Flexibility Score: inf
ROOT
ATOM      1  C   UNL     1       5.142  -2.419  -0.449  1.00  0.00    -0.185 C 
ENDROOT
BRANCH   1   2
ATOM      2  C   UNL     1       5.077  -0.881  -0.466  1.00  0.00    -0.012 C 
BRANCH   2   3
ATOM      3  C   UNL     1       4.953  -0.101   0.857  1.00  0.00    -0.026 A 
ATOM      4  C   UNL     1       6.219   0.271   1.652  1.00  0.00    -0.005 A 
ATOM      5  C   UNL     1       3.566   0.306   1.384  1.00  0.00    -0.012 A 
ATOM      6  C   UNL     1       6.096   1.051   2.974  1.00  0.00    -0.001 A 
ATOM      7  C   UNL     1       3.442   1.085   2.706  1.00  0.00    -0.060 A 
ATOM      8  C   UNL     1       4.707   1.458   3.501  1.00  0.00    -0.007 A 
BRANCH   7   9
ATOM      9  C   UNL     1       2.054   1.492   3.234  1.00  0.00    -0.203 C 
ATOM     10  O   UNL     1       1.936   2.394   4.476  1.00  0.00    -0.861 OA
ATOM     11  O   UNL     1       0.782   0.998   2.518  1.00  0.00    -0.861 OA
ENDBRANCH   7   9
ENDBRANCH   2   3
ENDBRANCH   1   2
BRANCH   1  12
ATOM     12  B   UNL     1       4.564  -3.227  -1.627  1.00  0.00    -0.139 C 
ATOM     13  O   UNL     1       5.276  -4.506  -2.107  1.00  0.00    -0.894 OA
ATOM     14  O   UNL     1       3.274  -2.756  -2.324  1.00  0.00    -0.894 OA
ENDBRANCH   1  12
BRANCH   1  15
ATOM     15  N   UNL     1       5.784  -3.150   0.744  1.00  0.00    -0.678 NA
BRANCH  15  16
ATOM     16  C   UNL     1       7.315  -3.299   0.823  1.00  0.00    -0.237 C 
ATOM     17  O   UNL     1       8.079  -2.765   2.049  1.00  0.00    -0.867 OA
BRANCH  16  18
ATOM     18  C   UNL     1       8.082  -3.981  -0.325  1.00  0.00    -0.018 C 
BRANCH  18  19
ATOM     19  C   UNL     1       8.829  -3.126  -1.367  1.00  0.00    -0.026 A 
ATOM     20  C   UNL     1       9.728  -3.805  -2.418  1.00  0.00    -0.004 A 
ATOM     21  C   UNL     1       8.675  -1.595  -1.358  1.00  0.00    -0.004 A 
ATOM     22  C   UNL     1      10.474  -2.951  -3.459  1.00  0.00    -0.000 A 
ATOM     23  C   UNL     1       9.422  -0.740  -2.400  1.00  0.00    -0.000 A 
ATOM     24  C   UNL     1      10.321  -1.418  -3.450  1.00  0.00    -0.000 A 
ENDBRANCH  18  19
ENDBRANCH  16  18
ENDBRANCH  15  16
ENDBRANCH   1  15
TORSDOF 8
ENDMDL
