REMARK SMILES [O-]B([O-])C([C]c1[c][c][c]c([C]([O-])[O-])[c]1)[N-][C]([O-])[C]c1[c][c][c][c][c]1
REMARK SMILES IDX 4 1 5 2 6 3 7 4 14 5 8 6 10 7 9 8 11 9 12 10 13 11 2 12 1 13
REMARK SMILES IDX 3 14 15 15 16 16 17 17 18 18 19 19 20 20 24 21 21 22 23 23
REMARK SMILES IDX 22 24
REMARK H PARENT
REMARK INDEX MAP 2 1 1 2 9 3 8 4 11 5 10 6 13 7 12 8 3 9 4 10 5 11 6 12 7 13
REMARK INDEX MAP 14 14 24 15 22 16 23 17 21 18 15 19 16 20 20 21 17 22 19 23
REMARK INDEX MAP 18 24
REMARK Flexibility Score: inf
ROOT
ATOM      1  C   UNL     1       6.989   2.420  10.988  1.00  0.00    -0.185 C 
ENDROOT
BRANCH   1   2
ATOM      2  C   UNL     1       6.459   3.649  11.750  1.00  0.00    -0.012 C 
BRANCH   2   3
ATOM      3  C   UNL     1       4.959   3.762  12.081  1.00  0.00    -0.026 A 
ATOM      4  C   UNL     1       4.494   3.780  13.549  1.00  0.00    -0.005 A 
ATOM      5  C   UNL     1       3.925   3.857  10.945  1.00  0.00    -0.012 A 
ATOM      6  C   UNL     1       2.994   3.893  13.880  1.00  0.00    -0.001 A 
ATOM      7  C   UNL     1       2.425   3.970  11.276  1.00  0.00    -0.060 A 
ATOM      8  C   UNL     1       1.960   3.988  12.743  1.00  0.00    -0.007 A 
BRANCH   7   9
ATOM      9  C   UNL     1       1.390   4.065  10.139  1.00  0.00    -0.203 C 
ATOM     10  O   UNL     1       1.504   3.137   8.915  1.00  0.00    -0.861 OA
ATOM     11  O   UNL     1       0.243   5.089  10.225  1.00  0.00    -0.861 OA
ENDBRANCH   7   9
ENDBRANCH   2   3
ENDBRANCH   1   2
BRANCH   1  12
ATOM     12  B   UNL     1       6.288   1.057  11.144  1.00  0.00    -0.139 C 
ATOM     13  O   UNL     1       6.681   0.116  12.298  1.00  0.00    -0.894 OA
ATOM     14  O   UNL     1       5.196   0.635  10.144  1.00  0.00    -0.894 OA
ENDBRANCH   1  12
BRANCH   1  15
ATOM     15  N   UNL     1       8.219   2.554  10.071  1.00  0.00    -0.678 NA
BRANCH  15  16
ATOM     16  C   UNL     1       8.038   2.942   8.592  1.00  0.00    -0.237 C 
ATOM     17  O   UNL     1       6.879   2.342   7.774  1.00  0.00    -0.867 OA
BRANCH  16  18
ATOM     18  C   UNL     1       9.016   3.931   7.930  1.00  0.00    -0.018 C 
BRANCH  18  19
ATOM     19  C   UNL     1       8.740   5.445   7.992  1.00  0.00    -0.026 A 
ATOM     20  C   UNL     1       9.381   6.387   6.957  1.00  0.00    -0.004 A 
ATOM     21  C   UNL     1       7.823   6.016   9.089  1.00  0.00    -0.004 A 
ATOM     22  C   UNL     1       9.105   7.901   7.019  1.00  0.00    -0.000 A 
ATOM     23  C   UNL     1       7.547   7.530   9.151  1.00  0.00    -0.000 A 
ATOM     24  C   UNL     1       8.188   8.472   8.116  1.00  0.00    -0.000 A 
ENDBRANCH  18  19
ENDBRANCH  16  18
ENDBRANCH  15  16
ENDBRANCH   1  15
TORSDOF 8
