MODEL 1
REMARK VINA RESULT:    -8.522      0.000      0.000
REMARK INTER + INTRA:         -16.547
REMARK INTER:                 -14.079
REMARK INTRA:                  -2.468
REMARK UNBOUND:                -1.298
WARNING: damped steplength 0.00759438 to 0.00666589
REMARK  Name = /tmp/RJWTFN0
REMARK                            x       y       z     vdW  Elec       q    Type
REMARK                         _______ _______ _______ _____ _____    ______ ____
ROOT
ATOM      1  C   UNK A  3        7.742  -8.014   7.506  0.00  0.00    +0.165 C 
ATOM      2  C   UNK A  3        9.120  -7.490   8.134  0.00  0.00    +0.234 C 
ATOM      3  N   ALA A  4       10.253  -8.087   7.561  0.00  0.00    -0.304 N 
ATOM      4  H   ALA A  4       10.218  -8.231   6.588  0.00  0.00    +0.273 HD
ATOM      5  H   UNK A  5       13.519 -10.231   6.194  0.00  0.00    +0.121 HD
ATOM      6  N   UNK A  5       12.627  -9.830   6.303  0.00  0.00    -0.307 N 
ATOM      7  C   UNK A  5       11.614 -10.487   5.427  0.00  0.00    +0.123 C 
ATOM      8  C   UNK A  5       11.491 -12.013   5.616  0.00  0.00    +0.067 C 
ATOM      9  C   UNK A  3        6.116 -11.915   9.209  0.00  0.00    +0.195 C 
ATOM     10  C   UNK A  3        6.524 -10.748  10.148  0.00  0.00    +0.163 C 
ATOM     11  O   UNK A  3        6.228 -10.777  11.349  0.00  0.00    -0.295 OA
ATOM     12  C   UNK A  3        7.277  -9.518   9.608  0.00  0.00    +0.083 C 
ATOM     13  C   UNK A  3        6.983 -11.891   7.924  0.00  0.00    +0.059 C 
ATOM     14  C   UNK A  5        8.430 -12.422   7.935  0.00  0.00    +0.000 A 
ATOM     15  C   UNK A  5        8.939 -13.392   8.810  0.00  0.00    +0.120 A 
ATOM     16  C   UNK A  5       10.232 -13.912   8.655  0.00  0.00    -0.018 A 
ATOM     17  C   UNK A  5       11.063 -13.448   7.639  0.00  0.00    -0.055 A 
ATOM     18  C   UNK A  5        9.284 -12.032   6.877  0.00  0.00    -0.052 A 
ATOM     19  C   UNK A  3        6.785 -10.464   7.319  0.00  0.00    +0.017 C 
ATOM     20  C   UNK A  5       10.609 -12.472   6.758  0.00  0.00    -0.045 A 
ATOM     21  C   ALA A  4       12.632  -8.815   7.217  0.00  0.00    +0.234 C 
ATOM     22  O   ALA A  4       13.695  -8.205   7.316  0.00  0.00    -0.274 OA
ATOM     23  CB  ALA A  4       11.931  -7.547   9.294  0.00  0.00    -0.036 C 
ATOM     24  CA  ALA A  4       11.457  -8.517   8.215  0.00  0.00    +0.097 C 
ATOM     25  O   UNK A  3        9.132  -6.868   9.199  0.00  0.00    -0.274 OA
ATOM     26  C   UNK A  3        7.634  -9.474   8.100  0.00  0.00    +0.026 C 
ENDROOT
BRANCH   1  28
ATOM     27  C   GLY A  2        6.468  -7.249   5.458  0.00  0.00    +0.233 C 
ATOM     28  N   UNK A  3        7.573  -7.908   5.992  0.00  0.00    -0.291 N 
ATOM     29  C   UNK A  3        8.579  -8.440   5.111  0.00  0.00    +0.133 C 
ATOM     30  O   GLY A  2        5.550  -6.829   6.165  0.00  0.00    -0.274 OA
BRANCH  27  31
ATOM     31  CA  GLY A  2        6.443  -7.106   3.907  0.00  0.00    +0.200 C 
BRANCH  31  33
ATOM     32  C   ALA A  1        4.821  -7.065   2.042  0.00  0.00    +0.233 C 
ATOM     33  N   GLY A  2        5.232  -6.609   3.293  0.00  0.00    -0.305 N 
ATOM     34  H   GLY A  2        4.690  -5.938   3.765  0.00  0.00    +0.149 HD
ATOM     35  O   ALA A  1        5.575  -7.641   1.253  0.00  0.00    -0.274 OA
BRANCH  32  36
ATOM     36  CA  ALA A  1        3.327  -6.790   1.656  0.00  0.00    +0.156 C 
ATOM     37  CB  ALA A  1        2.706  -7.970   0.908  0.00  0.00    +0.038 C 
BRANCH  36  39
ATOM     38  C   UNK A  0        2.981  -4.287   1.808  0.00  0.00    +0.236 C 
ATOM     39  N   ALA A  1        2.925  -5.488   1.130  0.00  0.00    -0.303 N 
ATOM     40  H   ALA A  1        2.582  -5.465   0.208  0.00  0.00    +0.149 HD
ATOM     41  O   UNK A  0        3.292  -4.236   3.023  0.00  0.00    -0.274 OA
BRANCH  38  42
ATOM     42  C   UNK A  0        2.372  -3.068   1.079  0.00  0.00    +0.187 C 
BRANCH  42  43
ATOM     43  N   UNK A  0        0.898  -3.195   0.933  0.00  0.00    -0.291 N 
ATOM     44  C   UNK A  0        0.184  -3.502  -0.225  0.00  0.00    +0.213 C 
ATOM     45  C   UNK A  0        0.907  -3.797  -1.498  0.00  0.00    +0.109 C 
ATOM     46  O   UNK A  0       -1.041  -3.570  -0.228  0.00  0.00    -0.276 OA
ATOM     47  C   UNK A  0        0.114  -2.733   2.082  0.00  0.00    +0.133 C 
ENDBRANCH  42  43
BRANCH  42  48
ATOM     48  C   UNK A  0        2.968  -1.672   1.398  0.00  0.00    +0.187 C 
BRANCH  48  49
ATOM     49  O   UNK A  0        4.385  -1.601   1.450  0.00  0.00    -0.393 OA
ATOM     50  H   UNK A  0        4.699  -0.942   0.809  0.00  0.00    +0.209 HD
ENDBRANCH  48  49
ENDBRANCH  42  48
ENDBRANCH  38  42
ENDBRANCH  36  39
ENDBRANCH  32  36
ENDBRANCH  31  33
ENDBRANCH  27  31
ENDBRANCH   1  28
BRANCH   7  51
ATOM     51  C   UNK A  5       11.985 -10.292   3.907  0.00  0.00    +0.062 C 
ATOM     52  O   UNK A  5       12.182 -11.372   3.249  0.00  0.00    -0.548 OA
ATOM     53  O   UNK A  5       12.089  -9.097   3.545  0.00  0.00    -0.548 OA
ENDBRANCH   7  51
BRANCH  15  54
ATOM     54  O   UNK A  5        8.165 -13.897   9.812  0.00  0.00    -0.509 OA
ATOM     55  H   UNK A  5        8.295 -14.777  10.106  0.00  0.00    +0.236 HD
ENDBRANCH  15  54
BRANCH   9  56
ATOM     56  O   UNK A  3        4.690 -11.857   8.901  0.00  0.00    -0.337 OA
BRANCH  56  60
ATOM     57  C   UNK A  3        4.861 -15.497  11.710  0.00  0.00    +0.016 C 
ATOM     58  C   UNK A  3        3.964 -14.607  10.861  0.00  0.00    +0.149 C 
ATOM     59  O   UNK A  3        4.732 -14.065   9.781  0.00  0.00    -0.343 OA
ATOM     60  C   UNK A  3        4.022 -13.135   8.941  0.00  0.00    +0.282 C 
ATOM     61  C   UNK A  3        2.511 -13.043   9.294  0.00  0.00    +0.201 C 
ATOM     62  C   UNK A  3        2.298 -12.709  10.772  0.00  0.00    +0.179 C 
ATOM     63  C   UNK A  3        3.297 -13.472  11.668  0.00  0.00    +0.174 C 
BRANCH  61  64
ATOM     64  O   UNK A  3        1.736 -12.216   8.427  0.00  0.00    -0.384 OA
ATOM     65  H   UNK A  3        2.328 -11.717   7.841  0.00  0.00    +0.210 HD
ENDBRANCH  61  64
BRANCH  62  66
ATOM     66  O   UNK A  3        2.363 -11.294  10.981  0.00  0.00    -0.386 OA
ATOM     67  H   UNK A  3        3.288 -11.026  11.095  0.00  0.00    +0.210 HD
ENDBRANCH  62  66
BRANCH  63  68
ATOM     68  O   UNK A  3        4.243 -12.529  12.191  0.00  0.00    -0.387 OA
ATOM     69  H   UNK A  3        4.479 -11.891  11.499  0.00  0.00    +0.210 HD
ENDBRANCH  63  68
ENDBRANCH  56  60
ENDBRANCH   9  56
TORSDOF 16
ENDMDL
MODEL 2
REMARK VINA RESULT:    -8.416      0.928      1.809
REMARK INTER + INTRA:         -16.357
REMARK INTER:                 -14.373
REMARK INTRA:                  -1.984
REMARK UNBOUND:                -1.298
WARNING: damped steplength 0.00759438 to 0.00666589
REMARK  Name = /tmp/RJWTFN0
REMARK                            x       y       z     vdW  Elec       q    Type
REMARK                         _______ _______ _______ _____ _____    ______ ____
ROOT
ATOM      1  C   UNK A  3        7.611  -8.152   7.279  0.00  0.00    +0.165 C 
ATOM      2  C   UNK A  3        8.995  -7.606   7.873  0.00  0.00    +0.234 C 
ATOM      3  N   ALA A  4       10.121  -8.251   7.338  0.00  0.00    -0.304 N 
ATOM      4  H   ALA A  4       10.083  -8.453   6.375  0.00  0.00    +0.273 HD
ATOM      5  H   UNK A  5       13.360 -10.512   6.103  0.00  0.00    +0.121 HD
ATOM      6  N   UNK A  5       12.472 -10.095   6.187  0.00  0.00    -0.307 N 
ATOM      7  C   UNK A  5       11.451 -10.792   5.354  0.00  0.00    +0.123 C 
ATOM      8  C   UNK A  5       11.311 -12.303   5.636  0.00  0.00    +0.067 C 
ATOM      9  C   UNK A  3        5.941 -11.922   9.219  0.00  0.00    +0.195 C 
ATOM     10  C   UNK A  3        6.364 -10.704  10.084  0.00  0.00    +0.163 C 
ATOM     11  O   UNK A  3        6.069 -10.657  11.285  0.00  0.00    -0.295 OA
ATOM     12  C   UNK A  3        7.130  -9.518   9.469  0.00  0.00    +0.083 C 
ATOM     13  C   UNK A  3        6.807 -11.987   7.935  0.00  0.00    +0.059 C 
ATOM     14  C   UNK A  5        8.248 -12.532   7.978  0.00  0.00    +0.000 A 
ATOM     15  C   UNK A  5        8.746 -13.453   8.910  0.00  0.00    +0.120 A 
ATOM     16  C   UNK A  5       10.033 -13.997   8.786  0.00  0.00    -0.018 A 
ATOM     17  C   UNK A  5       10.868 -13.606   7.743  0.00  0.00    -0.055 A 
ATOM     18  C   UNK A  5        9.105 -12.218   6.897  0.00  0.00    -0.052 A 
ATOM     19  C   UNK A  3        6.625 -10.597   7.243  0.00  0.00    +0.017 C 
ATOM     20  C   UNK A  5       10.425 -12.680   6.804  0.00  0.00    -0.045 A 
ATOM     21  C   ALA A  4       12.491  -9.026   7.037  0.00  0.00    +0.234 C 
ATOM     22  O   ALA A  4       13.561  -8.423   7.098  0.00  0.00    -0.274 OA
ATOM     23  CB  ALA A  4       11.807  -7.625   9.033  0.00  0.00    -0.036 C 
ATOM     24  CA  ALA A  4       11.320  -8.653   8.016  0.00  0.00    +0.097 C 
ATOM     25  O   UNK A  3        9.016  -6.921   8.898  0.00  0.00    -0.274 OA
ATOM     26  C   UNK A  3        7.486  -9.571   7.961  0.00  0.00    +0.026 C 
ENDROOT
BRANCH   1  28
ATOM     27  C   GLY A  2        6.400  -7.414   5.184  0.00  0.00    +0.233 C 
ATOM     28  N   UNK A  3        7.441  -8.136   5.761  0.00  0.00    -0.291 N 
ATOM     29  C   UNK A  3        8.384  -8.824   4.920  0.00  0.00    +0.133 C 
ATOM     30  O   GLY A  2        5.532  -6.859   5.860  0.00  0.00    -0.274 OA
BRANCH  27  31
ATOM     31  CA  GLY A  2        6.377  -7.378   3.626  0.00  0.00    +0.200 C 
BRANCH  31  33
ATOM     32  C   ALA A  1        4.578  -7.709   1.964  0.00  0.00    +0.233 C 
ATOM     33  N   GLY A  2        5.159  -6.949   2.977  0.00  0.00    -0.305 N 
ATOM     34  H   GLY A  2        4.733  -6.107   3.255  0.00  0.00    +0.149 HD
ATOM     35  O   ALA A  1        5.188  -8.582   1.341  0.00  0.00    -0.274 OA
BRANCH  32  36
ATOM     36  CA  ALA A  1        3.083  -7.385   1.620  0.00  0.00    +0.156 C 
ATOM     37  CB  ALA A  1        2.710  -7.851   0.212  0.00  0.00    +0.038 C 
BRANCH  36  39
ATOM     38  C   UNK A  0        2.734  -4.893   1.349  0.00  0.00    +0.236 C 
ATOM     39  N   ALA A  1        2.500  -6.096   1.983  0.00  0.00    -0.303 N 
ATOM     40  H   ALA A  1        1.884  -6.085   2.750  0.00  0.00    +0.149 HD
ATOM     41  O   UNK A  0        3.592  -4.790   0.440  0.00  0.00    -0.274 OA
BRANCH  38  42
ATOM     42  C   UNK A  0        2.100  -3.647   2.006  0.00  0.00    +0.187 C 
BRANCH  42  43
ATOM     43  N   UNK A  0        3.117  -2.602   2.298  0.00  0.00    -0.291 N 
ATOM     44  C   UNK A  0        4.108  -2.633   3.280  0.00  0.00    +0.213 C 
ATOM     45  C   UNK A  0        4.265  -3.836   4.151  0.00  0.00    +0.109 C 
ATOM     46  O   UNK A  0        4.890  -1.701   3.436  0.00  0.00    -0.276 OA
ATOM     47  C   UNK A  0        2.906  -1.319   1.621  0.00  0.00    +0.133 C 
ENDBRANCH  42  43
BRANCH  42  48
ATOM     48  C   UNK A  0        0.704  -3.201   1.498  0.00  0.00    +0.187 C 
BRANCH  48  49
ATOM     49  O   UNK A  0       -0.092  -2.478   2.426  0.00  0.00    -0.393 OA
ATOM     50  H   UNK A  0        0.481  -1.920   2.976  0.00  0.00    +0.209 HD
ENDBRANCH  48  49
ENDBRANCH  42  48
ENDBRANCH  38  42
ENDBRANCH  36  39
ENDBRANCH  32  36
ENDBRANCH  31  33
ENDBRANCH  27  31
ENDBRANCH   1  28
BRANCH   7  51
ATOM     51  C   UNK A  5       11.823 -10.696   3.824  0.00  0.00    +0.062 C 
ATOM     52  O   UNK A  5       12.472  -9.647   3.484  0.00  0.00    -0.548 OA
ATOM     53  O   UNK A  5       11.391 -11.640   3.123  0.00  0.00    -0.548 OA
ENDBRANCH   7  51
BRANCH  15  54
ATOM     54  O   UNK A  5        7.968 -13.887   9.941  0.00  0.00    -0.509 OA
ATOM     55  H   UNK A  5        8.222 -13.712  10.825  0.00  0.00    +0.236 HD
ENDBRANCH  15  54
BRANCH   9  56
ATOM     56  O   UNK A  3        4.516 -11.867   8.908  0.00  0.00    -0.337 OA
BRANCH  56  60
ATOM     57  C   UNK A  3        4.758 -15.546  11.660  0.00  0.00    +0.016 C 
ATOM     58  C   UNK A  3        3.839 -14.644  10.846  0.00  0.00    +0.149 C 
ATOM     59  O   UNK A  3        4.581 -14.087   9.755  0.00  0.00    -0.343 OA
ATOM     60  C   UNK A  3        3.850 -13.145   8.947  0.00  0.00    +0.282 C 
ATOM     61  C   UNK A  3        2.348 -13.061   9.337  0.00  0.00    +0.201 C 
ATOM     62  C   UNK A  3        2.170 -12.748  10.824  0.00  0.00    +0.179 C 
ATOM     63  C   UNK A  3        3.190 -13.523  11.684  0.00  0.00    +0.174 C 
BRANCH  61  64
ATOM     64  O   UNK A  3        1.551 -12.222   8.500  0.00  0.00    -0.384 OA
ATOM     65  H   UNK A  3        0.612 -12.392   8.673  0.00  0.00    +0.210 HD
ENDBRANCH  61  64
BRANCH  62  66
ATOM     66  O   UNK A  3        2.238 -11.336  11.051  0.00  0.00    -0.386 OA
ATOM     67  H   UNK A  3        2.830 -11.158  11.799  0.00  0.00    +0.210 HD
ENDBRANCH  62  66
BRANCH  63  68
ATOM     68  O   UNK A  3        4.148 -12.586  12.198  0.00  0.00    -0.387 OA
ATOM     69  H   UNK A  3        4.079 -12.550  13.165  0.00  0.00    +0.210 HD
ENDBRANCH  63  68
ENDBRANCH  56  60
ENDBRANCH   9  56
TORSDOF 16
ENDMDL
MODEL 3
REMARK VINA RESULT:    -8.222      3.040      5.432
REMARK INTER + INTRA:         -16.009
REMARK INTER:                 -14.104
REMARK INTRA:                  -1.904
REMARK UNBOUND:                -1.298
WARNING: damped steplength 0.00759438 to 0.00666589
REMARK  Name = /tmp/RJWTFN0
REMARK                            x       y       z     vdW  Elec       q    Type
REMARK                         _______ _______ _______ _____ _____    ______ ____
ROOT
ATOM      1  C   UNK A  3        7.172  -6.747   4.675  0.00  0.00    +0.165 C 
ATOM      2  C   UNK A  3        8.253  -6.869   3.498  0.00  0.00    +0.234 C 
ATOM      3  N   ALA A  4        7.744  -7.476   2.340  0.00  0.00    -0.304 N 
ATOM      4  H   ALA A  4        6.824  -7.229   2.093  0.00  0.00    +0.273 HD
ATOM      5  H   UNK A  5        6.343  -9.708  -0.852  0.00  0.00    +0.121 HD
ATOM      6  N   UNK A  5        6.414  -9.162  -0.036  0.00  0.00    -0.307 N 
ATOM      7  C   UNK A  5        5.141  -9.158   0.740  0.00  0.00    +0.123 C 
ATOM      8  C   UNK A  5        4.618 -10.557   1.128  0.00  0.00    +0.067 C 
ATOM      9  C   UNK A  3        6.612 -10.444   7.279  0.00  0.00    +0.195 C 
ATOM     10  C   UNK A  3        8.028  -9.863   7.019  0.00  0.00    +0.163 C 
ATOM     11  O   UNK A  3        9.000 -10.265   7.671  0.00  0.00    -0.295 OA
ATOM     12  C   UNK A  3        8.255  -8.757   5.971  0.00  0.00    +0.083 C 
ATOM     13  C   UNK A  3        5.692 -10.161   6.064  0.00  0.00    +0.059 C 
ATOM     14  C   UNK A  5        5.791 -11.009   4.780  0.00  0.00    +0.000 A 
ATOM     15  C   UNK A  5        6.248 -12.332   4.707  0.00  0.00    +0.120 A 
ATOM     16  C   UNK A  5        6.173 -13.068   3.516  0.00  0.00    -0.018 A 
ATOM     17  C   UNK A  5        5.669 -12.486   2.356  0.00  0.00    -0.055 A 
ATOM     18  C   UNK A  5        5.224 -10.483   3.596  0.00  0.00    -0.052 A 
ATOM     19  C   UNK A  3        5.737  -8.612   5.863  0.00  0.00    +0.017 C 
ATOM     20  C   UNK A  5        5.222 -11.169   2.374  0.00  0.00    -0.045 A 
ATOM     21  C   ALA A  4        7.654  -8.604   0.097  0.00  0.00    +0.234 C 
ATOM     22  O   ALA A  4        8.240  -8.370  -0.958  0.00  0.00    -0.274 OA
ATOM     23  CB  ALA A  4        9.863  -8.077   1.218  0.00  0.00    -0.036 C 
ATOM     24  CA  ALA A  4        8.396  -8.413   1.468  0.00  0.00    +0.097 C 
ATOM     25  O   UNK A  3        9.455  -6.720   3.727  0.00  0.00    -0.274 OA
ATOM     26  C   UNK A  3        7.035  -8.242   5.165  0.00  0.00    +0.026 C 
ENDROOT
BRANCH   1  28
ATOM     27  C   GLY A  2        5.422  -4.983   5.150  0.00  0.00    +0.233 C 
ATOM     28  N   UNK A  3        5.858  -6.039   4.353  0.00  0.00    -0.291 N 
ATOM     29  C   UNK A  3        5.092  -6.424   3.198  0.00  0.00    +0.133 C 
ATOM     30  O   GLY A  2        6.008  -4.654   6.183  0.00  0.00    -0.274 OA
BRANCH  27  31
ATOM     31  CA  GLY A  2        4.124  -4.263   4.676  0.00  0.00    +0.200 C 
BRANCH  31  33
ATOM     32  C   ALA A  1        2.900  -3.542   2.654  0.00  0.00    +0.233 C 
ATOM     33  N   GLY A  2        4.101  -3.721   3.336  0.00  0.00    -0.305 N 
ATOM     34  H   GLY A  2        4.947  -3.474   2.899  0.00  0.00    +0.149 HD
ATOM     35  O   ALA A  1        1.850  -4.104   2.976  0.00  0.00    -0.274 OA
BRANCH  32  36
ATOM     36  CA  ALA A  1        2.941  -2.589   1.409  0.00  0.00    +0.156 C 
ATOM     37  CB  ALA A  1        3.445  -1.194   1.777  0.00  0.00    +0.038 C 
BRANCH  36  39
ATOM     38  C   UNK A  0        1.468  -3.628  -0.369  0.00  0.00    +0.236 C 
ATOM     39  N   ALA A  1        1.842  -2.579   0.446  0.00  0.00    -0.303 N 
ATOM     40  H   ALA A  1        1.321  -1.748   0.372  0.00  0.00    +0.149 HD
ATOM     41  O   UNK A  0        2.145  -4.683  -0.428  0.00  0.00    -0.274 OA
BRANCH  38  42
ATOM     42  C   UNK A  0        0.355  -3.324  -1.397  0.00  0.00    +0.187 C 
BRANCH  42  43
ATOM     43  N   UNK A  0        0.712  -3.816  -2.754  0.00  0.00    -0.291 N 
ATOM     44  C   UNK A  0        1.135  -3.060  -3.847  0.00  0.00    +0.213 C 
ATOM     45  C   UNK A  0        1.325  -1.585  -3.712  0.00  0.00    +0.109 C 
ATOM     46  O   UNK A  0        1.393  -3.578  -4.929  0.00  0.00    -0.276 OA
ATOM     47  C   UNK A  0        0.367  -5.216  -3.021  0.00  0.00    +0.133 C 
ENDBRANCH  42  43
BRANCH  42  48
ATOM     48  C   UNK A  0       -1.115  -3.458  -0.922  0.00  0.00    +0.187 C 
BRANCH  48  49
ATOM     49  O   UNK A  0       -2.091  -2.838  -1.746  0.00  0.00    -0.393 OA
ATOM     50  H   UNK A  0       -2.034  -3.202  -2.644  0.00  0.00    +0.209 HD
ENDBRANCH  48  49
ENDBRANCH  42  48
ENDBRANCH  38  42
ENDBRANCH  36  39
ENDBRANCH  32  36
ENDBRANCH  31  33
ENDBRANCH  27  31
ENDBRANCH   1  28
BRANCH   7  51
ATOM     51  C   UNK A  5        3.979  -8.508  -0.105  0.00  0.00    +0.062 C 
ATOM     52  O   UNK A  5        4.232  -8.344  -1.348  0.00  0.00    -0.548 OA
ATOM     53  O   UNK A  5        2.967  -8.188   0.561  0.00  0.00    -0.548 OA
ENDBRANCH   7  51
BRANCH  15  54
ATOM     54  O   UNK A  5        6.734 -12.960   5.815  0.00  0.00    -0.509 OA
ATOM     55  H   UNK A  5        7.394 -12.547   6.336  0.00  0.00    +0.236 HD
ENDBRANCH  15  54
BRANCH   9  56
ATOM     56  O   UNK A  3        6.053  -9.911   8.518  0.00  0.00    -0.337 OA
BRANCH  56  60
ATOM     57  C   UNK A  3        6.175 -14.477   9.072  0.00  0.00    +0.016 C 
ATOM     58  C   UNK A  3        5.935 -13.135   9.751  0.00  0.00    +0.149 C 
ATOM     59  O   UNK A  3        5.460 -12.199   8.777  0.00  0.00    -0.343 OA
ATOM     60  C   UNK A  3        5.269 -10.859   9.270  0.00  0.00    +0.282 C 
ATOM     61  C   UNK A  3        5.463 -10.754  10.809  0.00  0.00    +0.201 C 
ATOM     62  C   UNK A  3        6.826 -11.299  11.242  0.00  0.00    +0.179 C 
ATOM     63  C   UNK A  3        7.188 -12.582  10.463  0.00  0.00    +0.174 C 
BRANCH  61  64
ATOM     64  O   UNK A  3        5.182  -9.471  11.368  0.00  0.00    -0.384 OA
ATOM     65  H   UNK A  3        5.129  -8.813  10.657  0.00  0.00    +0.210 HD
ENDBRANCH  61  64
BRANCH  62  66
ATOM     66  O   UNK A  3        7.833 -10.291  11.114  0.00  0.00    -0.386 OA
ATOM     67  H   UNK A  3        8.507 -10.585  10.482  0.00  0.00    +0.210 HD
ENDBRANCH  62  66
BRANCH  63  68
ATOM     68  O   UNK A  3        8.253 -12.269   9.554  0.00  0.00    -0.387 OA
ATOM     69  H   UNK A  3        9.034 -12.801   9.775  0.00  0.00    +0.210 HD
ENDBRANCH  63  68
ENDBRANCH  56  60
ENDBRANCH   9  56
TORSDOF 16
ENDMDL
MODEL 4
REMARK VINA RESULT:    -8.018      4.771      8.356
REMARK INTER + INTRA:         -15.645
REMARK INTER:                 -13.058
REMARK INTRA:                  -2.587
REMARK UNBOUND:                -1.298
WARNING: damped steplength 0.00759438 to 0.00666589
REMARK  Name = /tmp/RJWTFN0
REMARK                            x       y       z     vdW  Elec       q    Type
REMARK                         _______ _______ _______ _____ _____    ______ ____
ROOT
ATOM      1  C   UNK A  3        6.759  -8.066  -1.661  0.00  0.00    +0.165 C 
ATOM      2  C   UNK A  3        7.704  -9.078  -2.469  0.00  0.00    +0.234 C 
ATOM      3  N   ALA A  4        7.125 -10.340  -2.665  0.00  0.00    -0.304 N 
ATOM      4  H   ALA A  4        6.163 -10.344  -2.875  0.00  0.00    +0.273 HD
ATOM      5  H   UNK A  5        5.581 -14.179  -2.780  0.00  0.00    +0.121 HD
ATOM      6  N   UNK A  5        5.694 -13.205  -2.689  0.00  0.00    -0.307 N 
ATOM      7  C   UNK A  5        4.524 -12.572  -2.016  0.00  0.00    +0.123 C 
ATOM      8  C   UNK A  5        4.183 -13.158  -0.630  0.00  0.00    +0.067 C 
ATOM      9  C   UNK A  3        6.853  -8.428   2.880  0.00  0.00    +0.195 C 
ATOM     10  C   UNK A  3        8.169  -8.294   2.067  0.00  0.00    +0.163 C 
ATOM     11  O   UNK A  3        9.243  -8.080   2.644  0.00  0.00    -0.295 OA
ATOM     12  C   UNK A  3        8.168  -8.394   0.531  0.00  0.00    +0.083 C 
ATOM     13  C   UNK A  3        5.776  -9.152   2.032  0.00  0.00    +0.059 C 
ATOM     14  C   UNK A  5        5.807 -10.682   1.851  0.00  0.00    +0.000 A 
ATOM     15  C   UNK A  5        6.374 -11.600   2.746  0.00  0.00    +0.120 A 
ATOM     16  C   UNK A  5        6.232 -12.984   2.563  0.00  0.00    -0.018 A 
ATOM     17  C   UNK A  5        5.546 -13.484   1.461  0.00  0.00    -0.055 A 
ATOM     18  C   UNK A  5        5.060 -11.236   0.785  0.00  0.00    -0.052 A 
ATOM     19  C   UNK A  3        5.652  -8.313   0.719  0.00  0.00    +0.017 C 
ATOM     20  C   UNK A  5        4.982 -12.613   0.535  0.00  0.00    -0.045 A 
ATOM     21  C   ALA A  4        6.883 -12.780  -3.211  0.00  0.00    +0.234 C 
ATOM     22  O   ALA A  4        7.319 -13.455  -4.141  0.00  0.00    -0.274 OA
ATOM     23  CB  ALA A  4        9.147 -11.646  -3.226  0.00  0.00    -0.036 C 
ATOM     24  CA  ALA A  4        7.757 -11.628  -2.598  0.00  0.00    +0.097 C 
ATOM     25  O   UNK A  3        8.905  -8.840  -2.614  0.00  0.00    -0.274 OA
ATOM     26  C   UNK A  3        6.821  -8.647  -0.193  0.00  0.00    +0.026 C 
ENDROOT
BRANCH   1  28
ATOM     27  C   GLY A  2        5.140  -6.811  -3.145  0.00  0.00    +0.233 C 
ATOM     28  N   UNK A  3        5.356  -7.821  -2.211  0.00  0.00    -0.291 N 
ATOM     29  C   UNK A  3        4.262  -8.665  -1.808  0.00  0.00    +0.133 C 
ATOM     30  O   GLY A  2        6.028  -6.024  -3.478  0.00  0.00    -0.274 OA
BRANCH  27  31
ATOM     31  CA  GLY A  2        3.695  -6.712  -3.720  0.00  0.00    +0.200 C 
BRANCH  31  33
ATOM     32  C   ALA A  1        1.600  -6.205  -2.511  0.00  0.00    +0.233 C 
ATOM     33  N   GLY A  2        2.785  -5.774  -3.103  0.00  0.00    -0.305 N 
ATOM     34  H   GLY A  2        3.006  -4.815  -3.101  0.00  0.00    +0.149 HD
ATOM     35  O   ALA A  1        1.093  -7.306  -2.740  0.00  0.00    -0.274 OA
BRANCH  32  36
ATOM     36  CA  ALA A  1        0.903  -5.198  -1.532  0.00  0.00    +0.156 C 
ATOM     37  CB  ALA A  1       -0.149  -4.347  -2.245  0.00  0.00    +0.038 C 
BRANCH  36  39
ATOM     38  C   UNK A  0        2.401  -5.001   0.499  0.00  0.00    +0.236 C 
ATOM     39  N   ALA A  1        1.687  -4.455  -0.548  0.00  0.00    -0.303 N 
ATOM     40  H   ALA A  1        1.708  -3.476  -0.642  0.00  0.00    +0.149 HD
ATOM     41  O   UNK A  0        2.336  -6.225   0.766  0.00  0.00    -0.274 OA
BRANCH  38  42
ATOM     42  C   UNK A  0        3.041  -3.993   1.480  0.00  0.00    +0.187 C 
BRANCH  42  43
ATOM     43  N   UNK A  0        2.177  -2.801   1.684  0.00  0.00    -0.291 N 
ATOM     44  C   UNK A  0        2.585  -1.490   1.936  0.00  0.00    +0.213 C 
ATOM     45  C   UNK A  0        4.039  -1.150   1.975  0.00  0.00    +0.109 C 
ATOM     46  O   UNK A  0        1.776  -0.583   2.099  0.00  0.00    -0.276 OA
ATOM     47  C   UNK A  0        0.749  -3.085   1.853  0.00  0.00    +0.133 C 
ENDBRANCH  42  43
BRANCH  42  48
ATOM     48  C   UNK A  0        3.809  -4.570   2.698  0.00  0.00    +0.187 C 
BRANCH  48  49
ATOM     49  O   UNK A  0        3.337  -4.167   3.975  0.00  0.00    -0.393 OA
ATOM     50  H   UNK A  0        3.799  -4.671   4.664  0.00  0.00    +0.209 HD
ENDBRANCH  48  49
ENDBRANCH  42  48
ENDBRANCH  38  42
ENDBRANCH  36  39
ENDBRANCH  32  36
ENDBRANCH  31  33
ENDBRANCH  27  31
ENDBRANCH   1  28
BRANCH   7  51
ATOM     51  C   UNK A  5        3.216 -12.770  -2.875  0.00  0.00    +0.062 C 
ATOM     52  O   UNK A  5        3.368 -13.433  -3.958  0.00  0.00    -0.548 OA
ATOM     53  O   UNK A  5        2.198 -12.207  -2.410  0.00  0.00    -0.548 OA
ENDBRANCH   7  51
BRANCH  15  54
ATOM     54  O   UNK A  5        7.041 -11.168   3.853  0.00  0.00    -0.509 OA
ATOM     55  H   UNK A  5        7.104 -10.251   4.034  0.00  0.00    +0.236 HD
ENDBRANCH  15  54
BRANCH   9  56
ATOM     56  O   UNK A  3        6.392  -7.121   3.340  0.00  0.00    -0.337 OA
BRANCH  56  60
ATOM     57  C   UNK A  3        6.312  -9.997   6.930  0.00  0.00    +0.016 C 
ATOM     58  C   UNK A  3        6.275  -8.540   6.486  0.00  0.00    +0.149 C 
ATOM     59  O   UNK A  3        5.706  -8.469   5.174  0.00  0.00    -0.343 OA
ATOM     60  C   UNK A  3        5.686  -7.149   4.596  0.00  0.00    +0.282 C 
ATOM     61  C   UNK A  3        6.140  -6.050   5.597  0.00  0.00    +0.201 C 
ATOM     62  C   UNK A  3        7.518  -6.361   6.186  0.00  0.00    +0.179 C 
ATOM     63  C   UNK A  3        7.662  -7.863   6.508  0.00  0.00    +0.174 C 
BRANCH  61  64
ATOM     64  O   UNK A  3        6.039  -4.711   5.113  0.00  0.00    -0.384 OA
ATOM     65  H   UNK A  3        6.053  -4.095   5.863  0.00  0.00    +0.210 HD
ENDBRANCH  61  64
BRANCH  62  66
ATOM     66  O   UNK A  3        8.552  -5.897   5.313  0.00  0.00    -0.386 OA
ATOM     67  H   UNK A  3        8.626  -6.496   4.553  0.00  0.00    +0.210 HD
ENDBRANCH  62  66
BRANCH  63  68
ATOM     68  O   UNK A  3        8.578  -8.439   5.566  0.00  0.00    -0.387 OA
ATOM     69  H   UNK A  3        8.848  -9.319   5.874  0.00  0.00    +0.210 HD
ENDBRANCH  63  68
ENDBRANCH  56  60
ENDBRANCH   9  56
TORSDOF 16
ENDMDL
MODEL 5
REMARK VINA RESULT:    -8.014      5.393     10.186
REMARK INTER + INTRA:         -15.637
REMARK INTER:                 -13.443
REMARK INTRA:                  -2.194
REMARK UNBOUND:                -1.298
WARNING: damped steplength 0.00759438 to 0.00666589
REMARK  Name = /tmp/RJWTFN0
REMARK                            x       y       z     vdW  Elec       q    Type
REMARK                         _______ _______ _______ _____ _____    ______ ____
ROOT
ATOM      1  C   UNK A  3        9.435  -9.672   0.655  0.00  0.00    +0.165 C 
ATOM      2  C   UNK A  3        8.821 -10.845  -0.247  0.00  0.00    +0.234 C 
ATOM      3  N   ALA A  4        7.793 -10.410  -1.098  0.00  0.00    -0.304 N 
ATOM      4  H   ALA A  4        7.927  -9.531  -1.518  0.00  0.00    +0.273 HD
ATOM      5  H   UNK A  5        4.453  -9.182  -3.211  0.00  0.00    +0.121 HD
ATOM      6  N   UNK A  5        5.288  -9.209  -2.690  0.00  0.00    -0.307 N 
ATOM      7  C   UNK A  5        5.630  -7.874  -2.122  0.00  0.00    +0.123 C 
ATOM      8  C   UNK A  5        4.526  -7.242  -1.248  0.00  0.00    +0.067 C 
ATOM      9  C   UNK A  3        7.164  -8.680   4.479  0.00  0.00    +0.195 C 
ATOM     10  C   UNK A  3        7.567 -10.143   4.151  0.00  0.00    +0.163 C 
ATOM     11  O   UNK A  3        7.461 -11.029   5.009  0.00  0.00    -0.295 OA
ATOM     12  C   UNK A  3        8.134 -10.523   2.771  0.00  0.00    +0.083 C 
ATOM     13  C   UNK A  3        6.927  -7.889   3.167  0.00  0.00    +0.059 C 
ATOM     14  C   UNK A  5        5.621  -8.057   2.365  0.00  0.00    +0.000 A 
ATOM     15  C   UNK A  5        4.382  -8.446   2.893  0.00  0.00    +0.120 A 
ATOM     16  C   UNK A  5        3.218  -8.438   2.111  0.00  0.00    -0.018 A 
ATOM     17  C   UNK A  5        3.271  -8.073   0.769  0.00  0.00    -0.055 A 
ATOM     18  C   UNK A  5        5.613  -7.628   1.018  0.00  0.00    -0.052 A 
ATOM     19  C   UNK A  3        8.251  -8.036   2.350  0.00  0.00    +0.017 C 
ATOM     20  C   UNK A  5        4.481  -7.698   0.195  0.00  0.00    -0.045 A 
ATOM     21  C   ALA A  4        5.836 -10.461  -2.670  0.00  0.00    +0.234 C 
ATOM     22  O   ALA A  4        5.602 -11.151  -3.661  0.00  0.00    -0.274 OA
ATOM     23  CB  ALA A  4        6.754 -12.585  -1.643  0.00  0.00    -0.036 C 
ATOM     24  CA  ALA A  4        6.571 -11.085  -1.431  0.00  0.00    +0.097 C 
ATOM     25  O   UNK A  3        9.038 -12.028   0.024  0.00  0.00    -0.274 OA
ATOM     26  C   UNK A  3        8.281  -9.410   1.702  0.00  0.00    +0.026 C 
ENDROOT
BRANCH   1  28
ATOM     27  C   GLY A  2       11.175  -7.865   0.318  0.00  0.00    +0.233 C 
ATOM     28  N   UNK A  3        9.961  -8.432  -0.065  0.00  0.00    -0.291 N 
ATOM     29  C   UNK A  3        9.234  -7.876  -1.175  0.00  0.00    +0.133 C 
ATOM     30  O   GLY A  2       11.806  -8.266   1.298  0.00  0.00    -0.274 OA
BRANCH  27  31
ATOM     31  CA  GLY A  2       11.670  -6.668  -0.547  0.00  0.00    +0.200 C 
BRANCH  31  33
ATOM     32  C   ALA A  1       12.849  -4.495  -0.534  0.00  0.00    +0.233 C 
ATOM     33  N   GLY A  2       12.135  -5.484   0.140  0.00  0.00    -0.305 N 
ATOM     34  H   GLY A  2       11.943  -5.374   1.099  0.00  0.00    +0.149 HD
ATOM     35  O   ALA A  1       13.403  -4.685  -1.620  0.00  0.00    -0.274 OA
BRANCH  32  36
ATOM     36  CA  ALA A  1       12.944  -3.099   0.173  0.00  0.00    +0.156 C 
ATOM     37  CB  ALA A  1       12.399  -1.976  -0.710  0.00  0.00    +0.038 C 
BRANCH  36  39
ATOM     38  C   UNK A  0       14.171  -2.166   2.181  0.00  0.00    +0.236 C 
ATOM     39  N   ALA A  1       14.142  -2.726   0.920  0.00  0.00    -0.303 N 
ATOM     40  H   ALA A  1       15.009  -2.889   0.484  0.00  0.00    +0.149 HD
ATOM     41  O   UNK A  0       13.116  -1.815   2.764  0.00  0.00    -0.274 OA
BRANCH  38  42
ATOM     42  C   UNK A  0       15.561  -1.739   2.702  0.00  0.00    +0.187 C 
BRANCH  42  43
ATOM     43  N   UNK A  0       16.168  -2.784   3.567  0.00  0.00    -0.291 N 
ATOM     44  C   UNK A  0       16.620  -2.643   4.880  0.00  0.00    +0.213 C 
ATOM     45  C   UNK A  0       16.471  -1.337   5.589  0.00  0.00    +0.109 C 
ATOM     46  O   UNK A  0       17.117  -3.580   5.495  0.00  0.00    -0.276 OA
ATOM     47  C   UNK A  0       16.525  -4.031   2.884  0.00  0.00    +0.133 C 
ENDBRANCH  42  43
BRANCH  42  48
ATOM     48  C   UNK A  0       16.480  -0.956   1.729  0.00  0.00    +0.187 C 
BRANCH  48  49
ATOM     49  O   UNK A  0       15.847  -0.414   0.579  0.00  0.00    -0.393 OA
ATOM     50  H   UNK A  0       15.592  -1.135  -0.019  0.00  0.00    +0.209 HD
ENDBRANCH  48  49
ENDBRANCH  42  48
ENDBRANCH  38  42
ENDBRANCH  36  39
ENDBRANCH  32  36
ENDBRANCH  31  33
ENDBRANCH  27  31
ENDBRANCH   1  28
BRANCH   7  51
ATOM     51  C   UNK A  5        5.884  -6.829  -3.276  0.00  0.00    +0.062 C 
ATOM     52  O   UNK A  5        5.587  -7.232  -4.454  0.00  0.00    -0.548 OA
ATOM     53  O   UNK A  5        6.392  -5.748  -2.897  0.00  0.00    -0.548 OA
ENDBRANCH   7  51
BRANCH  15  54
ATOM     54  O   UNK A  5        4.266  -8.795   4.206  0.00  0.00    -0.509 OA
ATOM     55  H   UNK A  5        4.836  -9.443   4.570  0.00  0.00    +0.236 HD
ENDBRANCH  15  54
BRANCH   9  56
ATOM     56  O   UNK A  3        8.171  -8.041   5.321  0.00  0.00    -0.337 OA
BRANCH  56  60
ATOM     57  C   UNK A  3        5.927 -10.008   8.823  0.00  0.00    +0.016 C 
ATOM     58  C   UNK A  3        7.000  -9.004   8.425  0.00  0.00    +0.149 C 
ATOM     59  O   UNK A  3        6.689  -8.481   7.128  0.00  0.00    -0.343 OA
ATOM     60  C   UNK A  3        7.672  -7.575   6.591  0.00  0.00    +0.282 C 
ATOM     61  C   UNK A  3        8.788  -7.227   7.616  0.00  0.00    +0.201 C 
ATOM     62  C   UNK A  3        9.460  -8.487   8.165  0.00  0.00    +0.179 C 
ATOM     63  C   UNK A  3        8.424  -9.599   8.438  0.00  0.00    +0.174 C 
BRANCH  61  64
ATOM     64  O   UNK A  3        9.731  -6.250   7.175  0.00  0.00    -0.384 OA
ATOM     65  H   UNK A  3        9.277  -5.406   7.026  0.00  0.00    +0.210 HD
ENDBRANCH  61  64
BRANCH  62  66
ATOM     66  O   UNK A  3       10.499  -8.927   7.285  0.00  0.00    -0.386 OA
ATOM     67  H   UNK A  3       10.166  -9.645   6.725  0.00  0.00    +0.210 HD
ENDBRANCH  62  66
BRANCH  63  68
ATOM     68  O   UNK A  3        8.605 -10.632   7.460  0.00  0.00    -0.387 OA
ATOM     69  H   UNK A  3        9.519 -10.956   7.497  0.00  0.00    +0.210 HD
ENDBRANCH  63  68
ENDBRANCH  56  60
ENDBRANCH   9  56
TORSDOF 16
ENDMDL
