WARNING: damped steplength 0.00759438 to 0.00666589
REMARK  Name = /tmp/RJWTFN0
REMARK                            x       y       z     vdW  Elec       q    Type
REMARK                         _______ _______ _______ _____ _____    ______ ____
ROOT
ATOM      1  C   UNK A  3        2.858  -2.129  -0.283  0.00  0.00    +0.165 C 
ATOM      2  C   UNK A  3        3.750  -0.810  -0.468  0.00  0.00    +0.234 C 
ATOM      3  N   ALA A  4        4.168  -0.604  -1.791  0.00  0.00    -0.304 N 
ATOM      4  H   ALA A  4        3.504  -0.811  -2.488  0.00  0.00    +0.273 HD
ATOM      5  H   UNK A  5        5.779  -0.317  -5.593  0.00  0.00    +0.121 HD
ATOM      6  N   UNK A  5        5.231  -0.558  -4.812  0.00  0.00    -0.307 N 
ATOM      7  C   UNK A  5        4.400  -1.769  -5.071  0.00  0.00    +0.123 C 
ATOM      8  C   UNK A  5        5.194  -3.014  -5.516  0.00  0.00    +0.067 C 
ATOM      9  C   UNK A  3        5.139  -6.044   0.197  0.00  0.00    +0.195 C 
ATOM     10  C   UNK A  3        5.481  -4.813   1.079  0.00  0.00    +0.163 C 
ATOM     11  O   UNK A  3        6.230  -4.931   2.057  0.00  0.00    -0.295 OA
ATOM     12  C   UNK A  3        4.877  -3.428   0.781  0.00  0.00    +0.083 C 
ATOM     13  C   UNK A  3        4.613  -5.577  -1.184  0.00  0.00    +0.059 C 
ATOM     14  C   UNK A  5        5.582  -5.078  -2.275  0.00  0.00    +0.000 A 
ATOM     15  C   UNK A  5        6.929  -5.445  -2.401  0.00  0.00    +0.120 A 
ATOM     16  C   UNK A  5        7.695  -5.047  -3.506  0.00  0.00    -0.018 A 
ATOM     17  C   UNK A  5        7.141  -4.243  -4.498  0.00  0.00    -0.055 A 
ATOM     18  C   UNK A  5        5.043  -4.320  -3.340  0.00  0.00    -0.052 A 
ATOM     19  C   UNK A  3        3.401  -4.641  -0.870  0.00  0.00    +0.017 C 
ATOM     20  C   UNK A  5        5.813  -3.837  -4.406  0.00  0.00    -0.045 A 
ATOM     21  C   ALA A  4        5.427   0.300  -3.767  0.00  0.00    +0.234 C 
ATOM     22  O   ALA A  4        5.735   1.448  -4.083  0.00  0.00    -0.274 OA
ATOM     23  CB  ALA A  4        6.009   0.998  -1.404  0.00  0.00    -0.036 C 
ATOM     24  CA  ALA A  4        5.441  -0.132  -2.257  0.00  0.00    +0.097 C 
ATOM     25  O   UNK A  3        4.244  -0.241   0.508  0.00  0.00    -0.274 OA
ATOM     26  C   UNK A  3        3.926  -3.283  -0.435  0.00  0.00    +0.026 C 
ENDROOT
BRANCH   1  28
ATOM     27  C   GLY A  2        0.947  -3.486  -1.236  0.00  0.00    +0.233 C 
ATOM     28  N   UNK A  3        1.615  -2.266  -1.159  0.00  0.00    -0.291 N 
ATOM     29  C   UNK A  3        1.098  -1.125  -1.867  0.00  0.00    +0.133 C 
ATOM     30  O   GLY A  2        1.381  -4.507  -0.699  0.00  0.00    -0.274 OA
BRANCH  27  31
ATOM     31  CA  GLY A  2       -0.367  -3.492  -2.073  0.00  0.00    +0.200 C 
BRANCH  31  33
ATOM     32  C   ALA A  1       -2.066  -5.145  -2.773  0.00  0.00    +0.233 C 
ATOM     33  N   GLY A  2       -0.740  -4.721  -2.737  0.00  0.00    -0.305 N 
ATOM     34  H   GLY A  2       -0.046  -5.267  -3.172  0.00  0.00    +0.149 HD
ATOM     35  O   ALA A  1       -2.933  -4.716  -2.005  0.00  0.00    -0.274 OA
BRANCH  32  36
ATOM     36  CA  ALA A  1       -2.422  -6.237  -3.840  0.00  0.00    +0.156 C 
ATOM     37  CB  ALA A  1       -2.500  -7.633  -3.221  0.00  0.00    +0.038 C 
BRANCH  36  39
ATOM     38  C   UNK A  0       -0.442  -6.318  -5.416  0.00  0.00    +0.236 C 
ATOM     39  N   ALA A  1       -1.794  -6.217  -5.159  0.00  0.00    -0.303 N 
ATOM     40  H   ALA A  1       -2.391  -6.124  -5.936  0.00  0.00    +0.149 HD
ATOM     41  O   UNK A  0        0.401  -6.320  -4.486  0.00  0.00    -0.274 OA
BRANCH  38  42
ATOM     42  C   UNK A  0       -0.017  -6.137  -6.890  0.00  0.00    +0.187 C 
BRANCH  42  43
ATOM     43  N   UNK A  0        0.870  -7.240  -7.345  0.00  0.00    -0.291 N 
ATOM     44  C   UNK A  0        0.502  -8.545  -7.674  0.00  0.00    +0.213 C 
ATOM     45  C   UNK A  0       -0.934  -8.952  -7.640  0.00  0.00    +0.109 C 
ATOM     46  O   UNK A  0        1.330  -9.378  -8.030  0.00  0.00    -0.276 OA
ATOM     47  C   UNK A  0        2.307  -6.978  -7.219  0.00  0.00    +0.133 C 
ENDBRANCH  42  43
BRANCH  42  48
ATOM     48  C   UNK A  0       -1.076  -5.583  -7.878  0.00  0.00    +0.187 C 
BRANCH  48  49
ATOM     49  O   UNK A  0       -2.110  -6.484  -8.247  0.00  0.00    -0.393 OA
ATOM     50  H   UNK A  0       -1.727  -7.238  -8.723  0.00  0.00    +0.209 HD
ENDBRANCH  48  49
ENDBRANCH  42  48
ENDBRANCH  38  42
ENDBRANCH  36  39
ENDBRANCH  32  36
ENDBRANCH  31  33
ENDBRANCH  27  31
ENDBRANCH   1  28
BRANCH   7  51
ATOM     51  C   UNK A  5        3.376  -1.499  -6.240  0.00  0.00    +0.062 C 
ATOM     52  O   UNK A  5        3.826  -1.704  -7.420  0.00  0.00    -0.548 OA
ATOM     53  O   UNK A  5        2.260  -1.069  -5.866  0.00  0.00    -0.548 OA
ENDBRANCH   7  51
BRANCH  15  54
ATOM     54  O   UNK A  5        7.520  -6.247  -1.471  0.00  0.00    -0.509 OA
ATOM     55  H   UNK A  5        7.035  -6.531  -0.721  0.00  0.00    +0.236 HD
ENDBRANCH  15  54
BRANCH   9  56
ATOM     56  O   UNK A  3        4.185  -6.918   0.873  0.00  0.00    -0.337 OA
BRANCH  56  60
ATOM     57  C   UNK A  3        6.801 -10.698   1.067  0.00  0.00    +0.016 C 
ATOM     58  C   UNK A  3        5.379 -10.154   1.045  0.00  0.00    +0.149 C 
ATOM     59  O   UNK A  3        5.368  -8.909   0.337  0.00  0.00    -0.343 OA
ATOM     60  C   UNK A  3        4.091  -8.242   0.310  0.00  0.00    +0.282 C 
ATOM     61  C   UNK A  3        2.952  -9.105   0.919  0.00  0.00    +0.201 C 
ATOM     62  C   UNK A  3        3.291  -9.563   2.340  0.00  0.00    +0.179 C 
ATOM     63  C   UNK A  3        4.774  -9.977   2.454  0.00  0.00    +0.174 C 
BRANCH  61  64
ATOM     64  O   UNK A  3        1.645  -8.538   0.824  0.00  0.00    -0.384 OA
ATOM     65  H   UNK A  3        1.601  -7.733   1.365  0.00  0.00    +0.210 HD
ENDBRANCH  61  64
BRANCH  62  66
ATOM     66  O   UNK A  3        2.942  -8.552   3.290  0.00  0.00    -0.386 OA
ATOM     67  H   UNK A  3        3.456  -7.749   3.112  0.00  0.00    +0.210 HD
ENDBRANCH  62  66
BRANCH  63  68
ATOM     68  O   UNK A  3        5.459  -8.987   3.233  0.00  0.00    -0.387 OA
ATOM     69  H   UNK A  3        5.378  -8.122   2.800  0.00  0.00    +0.210 HD
ENDBRANCH  63  68
ENDBRANCH  56  60
ENDBRANCH   9  56
TORSDOF 16
