MODEL 1
REMARK VINA RESULT:   -10.425      0.000      0.000
REMARK INTER + INTRA:         -14.534
REMARK INTER:                 -11.469
REMARK INTRA:                  -3.065
REMARK UNBOUND:                 6.861
REMARK SMILES CC(=O)N(C)[C@H](CO)C(=O)N[C@H](C)C(=O)NCC(=O)N(C)[C@@H]1C(=O)N[C@@H](C)C(=O)N[C@H]([C]([O-])O)Cc2ccc(O)c(c2)-c2cc1ccc2O
REMARK SMILES IDX 19 1 18 2 20 3 21 4 22 5 23 6 24 7 25 8 26 9 27 10 45 12
REMARK SMILES IDX 44 13 46 14 43 15 47 16 48 17 49 18 41 19 42 20 39 21 36 22
REMARK SMILES IDX 40 23 38 24 37 25 35 26 31 27 30 28 28 29 29 30 32 32 34 33
REMARK SMILES IDX 33 34 17 35 16 36 14 37 15 38 12 39 13 40 11 41 9 42 10 43
REMARK SMILES IDX 6 44 4 45 5 46 2 47 3 48 1 49 7 50 8 51
REMARK H PARENT
REMARK INDEX MAP 5 1 31 2 12 3 33 4 18 5 23 6 1 7 13 8 22 9 36 10 19 12 25 13
REMARK INDEX MAP 28 14 24 15 34 16 32 17 2 18 27 19 29 20 35 21 26 22 4 23
REMARK INDEX MAP 39 24 37 25 21 26 20 27 14 28 30 29 3 30 40 32 6 33 7 34
REMARK INDEX MAP 38 35 15 36 43 37 8 38 41 39 46 40 16 41 44 42 10 43 42 44
REMARK INDEX MAP 17 45 47 46 48 47 11 48 49 49 45 50 9 51
REMARK Flexibility Score: 80.00
ROOT
ATOM      1  O   UNL     1       0.271  -6.093  -7.294  1.00  0.00    -0.273 OA
ATOM      2  C   UNL     1      -0.255  -5.194  -7.942  1.00  0.00     0.242 C 
ENDROOT
BRANCH   2   3
ATOM      3  N   UNL     1      -1.583  -5.237  -8.156  1.00  0.00    -0.328 N 
ATOM      4  C   UNL     1      -2.113  -5.115  -9.463  1.00  0.00     0.010 C 
BRANCH   3   5
ATOM      5  C   UNL     1      -2.500  -5.424  -7.057  1.00  0.00     0.136 C 
BRANCH   5   6
ATOM      6  C   UNL     1      -3.253  -6.686  -6.845  1.00  0.00     0.248 C 
ATOM      7  O   UNL     1      -3.080  -7.657  -7.574  1.00  0.00    -0.272 OA
ATOM      8  N   UNL     1      -4.085  -6.814  -5.852  1.00  0.00    -0.342 N 
BRANCH   8   9
ATOM      9  C   UNL     1      -4.352  -7.875  -4.955  1.00  0.00     0.105 CG0
ATOM     10  C   UNL     1      -3.396  -7.866  -3.723  1.00  0.00    -0.036 C 
ATOM     11  G   UNL     1      -5.768  -7.869  -4.547  1.00  0.00     0.000 G0
ENDBRANCH   8   9
ENDBRANCH   5   6
BRANCH   5  12
ATOM     12  C   UNL     1      -3.499  -4.299  -6.990  1.00  0.00    -0.015 A 
ATOM     13  C   UNL     1      -4.853  -4.531  -7.328  1.00  0.00    -0.045 A 
ATOM     14  C   UNL     1      -3.158  -3.008  -6.529  1.00  0.00    -0.053 A 
ATOM     15  C   UNL     1      -5.871  -3.597  -7.040  1.00  0.00     0.028 A 
ATOM     16  C   UNL     1      -4.144  -2.019  -6.344  1.00  0.00    -0.019 A 
ATOM     17  C   UNL     1      -5.503  -2.315  -6.573  1.00  0.00     0.123 A 
ATOM     18  O   UNL     1      -6.372  -1.440  -6.331  1.00  0.00    -0.507 OA
BRANCH  15  19
ATOM     19  C   UNL     1      -7.196  -4.091  -7.108  1.00  0.00     0.027 A 
ATOM     20  C   UNL     1      -7.572  -5.010  -6.101  1.00  0.00    -0.047 A 
ATOM     21  C   UNL     1      -8.092  -3.842  -8.172  1.00  0.00     0.123 A 
ATOM     22  C   UNL     1      -8.747  -5.789  -6.193  1.00  0.00    -0.045 A 
ATOM     23  O   UNL     1      -7.805  -3.017  -9.078  1.00  0.00    -0.507 OA
ATOM     24  C   UNL     1      -9.311  -4.548  -8.236  1.00  0.00    -0.019 A 
ATOM     25  C   UNL     1      -9.624  -5.524  -7.269  1.00  0.00    -0.055 A 
BRANCH  22  26
ATOM     26  C   UNL     1      -9.006  -6.861  -5.191  1.00  0.00    -0.006 C 
BRANCH  26  27
ATOM     27  C   UNL     1      -8.140  -8.166  -5.281  1.00  0.00     0.048 C 
BRANCH  27  28
ATOM     28  N   UNL     1      -6.749  -7.961  -5.426  1.00  0.00    -0.350 N 
ATOM     29  C   UNL     1      -5.787  -7.882  -4.542  1.00  0.00     0.242 CG0
ATOM     30  O   UNL     1      -6.101  -7.824  -3.358  1.00  0.00    -0.273 OA
ATOM     31  G   UNL     1      -4.367  -7.873  -4.934  1.00  0.00     0.000 G0
ENDBRANCH  27  28
BRANCH  27  32
ATOM     32  C   UNL     1      -8.732  -9.220  -6.101  1.00  0.00     0.027 C 
ATOM     33  O   UNL     1      -8.585 -10.407  -5.832  1.00  0.00    -0.403 OA
ATOM     34  O   UNL     1      -9.380  -9.012  -7.115  1.00  0.00    -0.826 OA
ENDBRANCH  27  32
ENDBRANCH  26  27
ENDBRANCH  22  26
ENDBRANCH  15  19
ENDBRANCH   5  12
ENDBRANCH   3   5
ENDBRANCH   2   3
BRANCH   2  35
ATOM     35  C   UNL     1       0.717  -4.181  -8.367  1.00  0.00     0.097 C 
BRANCH  35  36
ATOM     36  N   UNL     1       0.536  -2.984  -7.684  1.00  0.00    -0.345 N 
ATOM     37  C   UNL     1       0.742  -2.607  -6.457  1.00  0.00     0.242 C 
ATOM     38  O   UNL     1       0.280  -1.483  -6.311  1.00  0.00    -0.273 OA
BRANCH  37  39
ATOM     39  C   UNL     1       1.337  -3.293  -5.298  1.00  0.00     0.105 C 
ATOM     40  C   UNL     1       2.833  -3.692  -5.401  1.00  0.00    -0.036 C 
BRANCH  39  41
ATOM     41  N   UNL     1       1.326  -2.454  -4.175  1.00  0.00    -0.343 N 
ATOM     42  C   UNL     1       0.809  -2.495  -2.985  1.00  0.00     0.245 C 
ATOM     43  O   UNL     1       1.122  -1.473  -2.387  1.00  0.00    -0.273 OA
BRANCH  42  44
ATOM     44  C   UNL     1      -0.052  -3.443  -2.267  1.00  0.00     0.133 C 
BRANCH  44  45
ATOM     45  N   UNL     1       0.675  -4.111  -1.224  1.00  0.00    -0.332 N 
ATOM     46  C   UNL     1       1.462  -5.242  -1.567  1.00  0.00     0.010 C 
BRANCH  45  47
ATOM     47  C   UNL     1       0.594  -3.713   0.038  1.00  0.00     0.219 C 
ATOM     48  O   UNL     1      -0.199  -2.833   0.352  1.00  0.00    -0.275 OA
ATOM     49  C   UNL     1       1.407  -4.200   1.138  1.00  0.00     0.015 C 
ENDBRANCH  45  47
ENDBRANCH  44  45
BRANCH  44  50
ATOM     50  C   UNL     1      -1.008  -4.382  -3.066  1.00  0.00     0.073 C 
ATOM     51  O   UNL     1      -1.994  -4.947  -2.205  1.00  0.00    -0.394 OA
ENDBRANCH  44  50
ENDBRANCH  42  44
ENDBRANCH  39  41
ENDBRANCH  37  39
ENDBRANCH  35  36
ENDBRANCH   2  35
TORSDOF 11
ENDMDL
MODEL 2
REMARK VINA RESULT:   -10.386      7.628     13.058
REMARK INTER + INTRA:         -14.454
REMARK INTER:                 -12.621
REMARK INTRA:                  -1.834
REMARK UNBOUND:                 6.861
REMARK SMILES CC(=O)N(C)[C@H](CO)C(=O)N[C@H](C)C(=O)NCC(=O)N(C)[C@@H]1C(=O)N[C@@H](C)C(=O)N[C@H]([C]([O-])O)Cc2ccc(O)c(c2)-c2cc1ccc2O
REMARK SMILES IDX 19 1 18 2 20 3 21 4 22 5 23 6 24 7 25 8 26 9 27 10 45 12
REMARK SMILES IDX 44 13 46 14 43 15 47 16 48 17 49 18 41 19 42 20 39 21 36 22
REMARK SMILES IDX 40 23 38 24 37 25 35 26 31 27 30 28 28 29 29 30 32 32 34 33
REMARK SMILES IDX 33 34 17 35 16 36 14 37 15 38 12 39 13 40 11 41 9 42 10 43
REMARK SMILES IDX 6 44 4 45 5 46 2 47 3 48 1 49 7 50 8 51
REMARK H PARENT
REMARK INDEX MAP 5 1 31 2 12 3 33 4 18 5 23 6 1 7 13 8 22 9 36 10 19 12 25 13
REMARK INDEX MAP 28 14 24 15 34 16 32 17 2 18 27 19 29 20 35 21 26 22 4 23
REMARK INDEX MAP 39 24 37 25 21 26 20 27 14 28 30 29 3 30 40 32 6 33 7 34
REMARK INDEX MAP 38 35 15 36 43 37 8 38 41 39 46 40 16 41 44 42 10 43 42 44
REMARK INDEX MAP 17 45 47 46 48 47 11 48 49 49 45 50 9 51
REMARK Flexibility Score: 80.00
ROOT
ATOM      1  O   UNL     1       5.835 -10.718   0.086  1.00  0.00    -0.273 OA
ATOM      2  C   UNL     1       5.966 -10.233   1.206  1.00  0.00     0.242 C 
ENDROOT
BRANCH   2   3
ATOM      3  N   UNL     1       6.201  -8.913   1.320  1.00  0.00    -0.328 N 
ATOM      4  C   UNL     1       7.514  -8.425   1.526  1.00  0.00     0.010 C 
BRANCH   3   5
ATOM      5  C   UNL     1       5.121  -7.961   1.218  1.00  0.00     0.136 C 
BRANCH   5   6
ATOM      6  C   UNL     1       4.792  -7.251  -0.043  1.00  0.00     0.248 C 
ATOM      7  O   UNL     1       5.629  -7.113  -0.929  1.00  0.00    -0.272 OA
ATOM      8  N   UNL     1       3.594  -6.792  -0.264  1.00  0.00    -0.342 N 
BRANCH   8   9
ATOM      9  C   UNL     1       2.768  -6.779  -1.413  1.00  0.00     0.105 CG0
ATOM     10  C   UNL     1       2.502  -8.211  -1.969  1.00  0.00    -0.036 C 
ATOM     11  G   UNL     1       1.513  -6.056  -1.145  1.00  0.00     0.000 G0
ENDBRANCH   8   9
ENDBRANCH   5   6
BRANCH   5  12
ATOM     12  C   UNL     1       5.219  -6.916   2.299  1.00  0.00    -0.015 A 
ATOM     13  C   UNL     1       4.656  -5.635   2.099  1.00  0.00    -0.045 A 
ATOM     14  C   UNL     1       5.799  -7.181   3.559  1.00  0.00    -0.053 A 
ATOM     15  C   UNL     1       4.491  -4.713   3.155  1.00  0.00     0.028 A 
ATOM     16  C   UNL     1       5.749  -6.229   4.596  1.00  0.00    -0.019 A 
ATOM     17  C   UNL     1       5.074  -5.005   4.409  1.00  0.00     0.123 A 
ATOM     18  O   UNL     1       4.978  -4.201   5.370  1.00  0.00    -0.507 OA
BRANCH  15  19
ATOM     19  C   UNL     1       3.614  -3.631   2.896  1.00  0.00     0.027 A 
ATOM     20  C   UNL     1       2.337  -3.970   2.390  1.00  0.00    -0.047 A 
ATOM     21  C   UNL     1       3.978  -2.268   2.970  1.00  0.00     0.123 A 
ATOM     22  C   UNL     1       1.469  -3.007   1.831  1.00  0.00    -0.045 A 
ATOM     23  O   UNL     1       5.096  -1.922   3.431  1.00  0.00    -0.507 OA
ATOM     24  C   UNL     1       3.088  -1.283   2.495  1.00  0.00    -0.019 A 
ATOM     25  C   UNL     1       1.858  -1.650   1.914  1.00  0.00    -0.055 A 
BRANCH  22  26
ATOM     26  C   UNL     1       0.212  -3.442   1.160  1.00  0.00    -0.006 C 
BRANCH  26  27
ATOM     27  C   UNL     1       0.330  -4.061  -0.276  1.00  0.00     0.048 C 
BRANCH  27  28
ATOM     28  N   UNL     1       1.394  -4.973  -0.458  1.00  0.00    -0.350 N 
ATOM     29  C   UNL     1       1.492  -6.058  -1.183  1.00  0.00     0.242 CG0
ATOM     30  O   UNL     1       0.471  -6.491  -1.708  1.00  0.00    -0.273 OA
ATOM     31  G   UNL     1       2.779  -6.746  -1.386  1.00  0.00     0.000 G0
ENDBRANCH  27  28
BRANCH  27  32
ATOM     32  C   UNL     1       0.098  -3.106  -1.357  1.00  0.00     0.027 C 
ATOM     33  O   UNL     1       0.982  -2.803  -2.152  1.00  0.00    -0.403 OA
ATOM     34  O   UNL     1      -0.959  -2.521  -1.535  1.00  0.00    -0.826 OA
ENDBRANCH  27  32
ENDBRANCH  26  27
ENDBRANCH  22  26
ENDBRANCH  15  19
ENDBRANCH   5  12
ENDBRANCH   3   5
ENDBRANCH   2   3
BRANCH   2  35
ATOM     35  C   UNL     1       5.814 -11.239   2.262  1.00  0.00     0.097 C 
BRANCH  35  36
ATOM     36  N   UNL     1       5.124 -10.728   3.356  1.00  0.00    -0.345 N 
ATOM     37  C   UNL     1       5.490 -10.237   4.503  1.00  0.00     0.242 C 
ATOM     38  O   UNL     1       4.491 -10.061   5.188  1.00  0.00    -0.273 OA
BRANCH  37  39
ATOM     39  C   UNL     1       6.813  -9.948   5.078  1.00  0.00     0.105 C 
ATOM     40  C   UNL     1       6.851  -9.400   6.530  1.00  0.00    -0.036 C 
BRANCH  39  41
ATOM     41  N   UNL     1       7.569 -11.123   5.182  1.00  0.00    -0.343 N 
ATOM     42  C   UNL     1       8.799 -11.465   4.944  1.00  0.00     0.245 C 
ATOM     43  O   UNL     1       8.936 -12.650   5.220  1.00  0.00    -0.273 OA
BRANCH  42  44
ATOM     44  C   UNL     1       9.978 -10.771   4.412  1.00  0.00     0.133 C 
BRANCH  44  45
ATOM     45  N   UNL     1      10.222  -9.548   5.124  1.00  0.00    -0.332 N 
ATOM     46  C   UNL     1       9.720  -8.337   4.578  1.00  0.00     0.010 C 
BRANCH  45  47
ATOM     47  C   UNL     1      10.928  -9.532   6.245  1.00  0.00     0.219 C 
ATOM     48  O   UNL     1      12.125  -9.796   6.219  1.00  0.00    -0.275 OA
ATOM     49  C   UNL     1      10.409  -9.262   7.574  1.00  0.00     0.015 C 
ENDBRANCH  45  47
ENDBRANCH  44  45
BRANCH  44  50
ATOM     50  C   UNL     1      10.174 -10.648   2.868  1.00  0.00     0.073 C 
ATOM     51  O   UNL     1       9.342 -11.579   2.179  1.00  0.00    -0.394 OA
ENDBRANCH  44  50
ENDBRANCH  42  44
ENDBRANCH  39  41
ENDBRANCH  37  39
ENDBRANCH  35  36
ENDBRANCH   2  35
TORSDOF 11
ENDMDL
MODEL 3
REMARK VINA RESULT:   -10.373      6.166     10.349
REMARK INTER + INTRA:         -14.428
REMARK INTER:                 -13.112
REMARK INTRA:                  -1.315
REMARK UNBOUND:                 6.861
REMARK SMILES CC(=O)N(C)[C@H](CO)C(=O)N[C@H](C)C(=O)NCC(=O)N(C)[C@@H]1C(=O)N[C@@H](C)C(=O)N[C@H]([C]([O-])O)Cc2ccc(O)c(c2)-c2cc1ccc2O
REMARK SMILES IDX 19 1 18 2 20 3 21 4 22 5 23 6 24 7 25 8 26 9 27 10 45 12
REMARK SMILES IDX 44 13 46 14 43 15 47 16 48 17 49 18 41 19 42 20 39 21 36 22
REMARK SMILES IDX 40 23 38 24 37 25 35 26 31 27 30 28 28 29 29 30 32 32 34 33
REMARK SMILES IDX 33 34 17 35 16 36 14 37 15 38 12 39 13 40 11 41 9 42 10 43
REMARK SMILES IDX 6 44 4 45 5 46 2 47 3 48 1 49 7 50 8 51
REMARK H PARENT
REMARK INDEX MAP 5 1 31 2 12 3 33 4 18 5 23 6 1 7 13 8 22 9 36 10 19 12 25 13
REMARK INDEX MAP 28 14 24 15 34 16 32 17 2 18 27 19 29 20 35 21 26 22 4 23
REMARK INDEX MAP 39 24 37 25 21 26 20 27 14 28 30 29 3 30 40 32 6 33 7 34
REMARK INDEX MAP 38 35 15 36 43 37 8 38 41 39 46 40 16 41 44 42 10 43 42 44
REMARK INDEX MAP 17 45 47 46 48 47 11 48 49 49 45 50 9 51
REMARK Flexibility Score: 80.00
ROOT
ATOM      1  O   UNL     1       4.426  -4.177  -4.841  1.00  0.00    -0.273 OA
ATOM      2  C   UNL     1       3.584  -3.421  -5.315  1.00  0.00     0.242 C 
ENDROOT
BRANCH   2   3
ATOM      3  N   UNL     1       2.406  -3.932  -5.720  1.00  0.00    -0.328 N 
ATOM      4  C   UNL     1       2.214  -4.337  -7.063  1.00  0.00     0.010 C 
BRANCH   3   5
ATOM      5  C   UNL     1       1.314  -4.093  -4.790  1.00  0.00     0.136 C 
BRANCH   5   6
ATOM      6  C   UNL     1       1.022  -3.111  -3.715  1.00  0.00     0.248 C 
ATOM      7  O   UNL     1       1.035  -1.905  -3.940  1.00  0.00    -0.272 OA
ATOM      8  N   UNL     1       0.700  -3.501  -2.516  1.00  0.00    -0.342 N 
BRANCH   8   9
ATOM      9  C   UNL     1      -0.263  -3.044  -1.585  1.00  0.00     0.105 CG0
ATOM     10  C   UNL     1      -1.641  -3.751  -1.759  1.00  0.00    -0.036 C 
ATOM     11  G   UNL     1       0.244  -3.169  -0.207  1.00  0.00     0.000 G0
ENDBRANCH   8   9
ENDBRANCH   5   6
BRANCH   5  12
ATOM     12  C   UNL     1       1.351  -5.453  -4.143  1.00  0.00    -0.015 A 
ATOM     13  C   UNL     1       2.229  -5.701  -3.063  1.00  0.00    -0.045 A 
ATOM     14  C   UNL     1       0.484  -6.500  -4.528  1.00  0.00    -0.053 A 
ATOM     15  C   UNL     1       2.126  -6.859  -2.261  1.00  0.00     0.028 A 
ATOM     16  C   UNL     1       0.446  -7.712  -3.812  1.00  0.00    -0.019 A 
ATOM     17  C   UNL     1       1.244  -7.887  -2.663  1.00  0.00     0.123 A 
ATOM     18  O   UNL     1       1.140  -8.948  -1.998  1.00  0.00    -0.507 OA
BRANCH  15  19
ATOM     19  C   UNL     1       2.819  -6.816  -1.026  1.00  0.00     0.027 A 
ATOM     20  C   UNL     1       2.302  -5.931  -0.051  1.00  0.00    -0.047 A 
ATOM     21  C   UNL     1       4.044  -7.472  -0.771  1.00  0.00     0.123 A 
ATOM     22  C   UNL     1       3.031  -5.577   1.106  1.00  0.00    -0.045 A 
ATOM     23  O   UNL     1       4.529  -8.281  -1.603  1.00  0.00    -0.507 OA
ATOM     24  C   UNL     1       4.746  -7.196   0.421  1.00  0.00    -0.019 A 
ATOM     25  C   UNL     1       4.255  -6.244   1.337  1.00  0.00    -0.055 A 
BRANCH  22  26
ATOM     26  C   UNL     1       2.513  -4.513   2.012  1.00  0.00    -0.006 C 
BRANCH  26  27
ATOM     27  C   UNL     1       2.151  -3.127   1.374  1.00  0.00     0.048 C 
BRANCH  27  28
ATOM     28  N   UNL     1       1.500  -3.187   0.122  1.00  0.00    -0.350 N 
ATOM     29  C   UNL     1       0.230  -3.181  -0.197  1.00  0.00     0.242 CG0
ATOM     30  O   UNL     1      -0.589  -3.288   0.709  1.00  0.00    -0.273 OA
ATOM     31  G   UNL     1      -0.222  -3.039  -1.592  1.00  0.00     0.000 G0
ENDBRANCH  27  28
BRANCH  27  32
ATOM     32  C   UNL     1       3.194  -2.114   1.519  1.00  0.00     0.027 C 
ATOM     33  O   UNL     1       4.385  -2.396   1.431  1.00  0.00    -0.403 OA
ATOM     34  O   UNL     1       2.973  -0.938   1.767  1.00  0.00    -0.826 OA
ENDBRANCH  27  32
ENDBRANCH  26  27
ENDBRANCH  22  26
ENDBRANCH  15  19
ENDBRANCH   5  12
ENDBRANCH   3   5
ENDBRANCH   2   3
BRANCH   2  35
ATOM     35  C   UNL     1       4.041  -2.028  -5.331  1.00  0.00     0.097 C 
BRANCH  35  36
ATOM     36  N   UNL     1       3.626  -1.370  -6.484  1.00  0.00    -0.345 N 
ATOM     37  C   UNL     1       4.204  -1.078  -7.611  1.00  0.00     0.242 C 
ATOM     38  O   UNL     1       3.458  -0.350  -8.254  1.00  0.00    -0.273 OA
BRANCH  37  39
ATOM     39  C   UNL     1       5.531  -1.405  -8.158  1.00  0.00     0.105 C 
ATOM     40  C   UNL     1       5.613  -1.732  -9.673  1.00  0.00    -0.036 C 
BRANCH  39  41
ATOM     41  N   UNL     1       6.393  -0.306  -8.041  1.00  0.00    -0.343 N 
ATOM     42  C   UNL     1       7.660  -0.135  -7.818  1.00  0.00     0.245 C 
ATOM     43  O   UNL     1       7.899   1.067  -7.822  1.00  0.00    -0.273 OA
BRANCH  42  44
ATOM     44  C   UNL     1       8.790  -1.031  -7.545  1.00  0.00     0.133 C 
BRANCH  44  45
ATOM     45  N   UNL     1      10.042  -0.367  -7.776  1.00  0.00    -0.332 N 
ATOM     46  C   UNL     1      10.379  -0.005  -9.107  1.00  0.00     0.010 C 
BRANCH  45  47
ATOM     47  C   UNL     1      10.887  -0.125  -6.784  1.00  0.00     0.219 C 
ATOM     48  O   UNL     1      11.213   1.028  -6.524  1.00  0.00    -0.275 OA
ATOM     49  C   UNL     1      11.534  -1.126  -5.953  1.00  0.00     0.015 C 
ENDBRANCH  45  47
ENDBRANCH  44  45
BRANCH  44  50
ATOM     50  C   UNL     1       8.755  -2.503  -8.063  1.00  0.00     0.073 C 
ATOM     51  O   UNL     1       8.945  -3.419  -6.988  1.00  0.00    -0.394 OA
ENDBRANCH  44  50
ENDBRANCH  42  44
ENDBRANCH  39  41
ENDBRANCH  37  39
ENDBRANCH  35  36
ENDBRANCH   2  35
TORSDOF 11
ENDMDL
MODEL 4
REMARK VINA RESULT:   -10.337      5.839      9.389
REMARK INTER + INTRA:         -14.353
REMARK INTER:                 -11.034
REMARK INTRA:                  -3.318
REMARK UNBOUND:                 6.861
REMARK SMILES CC(=O)N(C)[C@H](CO)C(=O)N[C@H](C)C(=O)NCC(=O)N(C)[C@@H]1C(=O)N[C@@H](C)C(=O)N[C@H]([C]([O-])O)Cc2ccc(O)c(c2)-c2cc1ccc2O
REMARK SMILES IDX 19 1 18 2 20 3 21 4 22 5 23 6 24 7 25 8 26 9 27 10 45 12
REMARK SMILES IDX 44 13 46 14 43 15 47 16 48 17 49 18 41 19 42 20 39 21 36 22
REMARK SMILES IDX 40 23 38 24 37 25 35 26 31 27 30 28 28 29 29 30 32 32 34 33
REMARK SMILES IDX 33 34 17 35 16 36 14 37 15 38 12 39 13 40 11 41 9 42 10 43
REMARK SMILES IDX 6 44 4 45 5 46 2 47 3 48 1 49 7 50 8 51
REMARK H PARENT
REMARK INDEX MAP 5 1 31 2 12 3 33 4 18 5 23 6 1 7 13 8 22 9 36 10 19 12 25 13
REMARK INDEX MAP 28 14 24 15 34 16 32 17 2 18 27 19 29 20 35 21 26 22 4 23
REMARK INDEX MAP 39 24 37 25 21 26 20 27 14 28 30 29 3 30 40 32 6 33 7 34
REMARK INDEX MAP 38 35 15 36 43 37 8 38 41 39 46 40 16 41 44 42 10 43 42 44
REMARK INDEX MAP 17 45 47 46 48 47 11 48 49 49 45 50 9 51
REMARK Flexibility Score: 80.00
ROOT
ATOM      1  O   UNL     1       5.615  -6.660  -5.788  1.00  0.00    -0.273 OA
ATOM      2  C   UNL     1       5.192  -6.217  -4.726  1.00  0.00     0.242 C 
ENDROOT
BRANCH   2   3
ATOM      3  N   UNL     1       5.401  -6.920  -3.598  1.00  0.00    -0.328 N 
ATOM      4  C   UNL     1       6.479  -6.605  -2.735  1.00  0.00     0.010 C 
BRANCH   3   5
ATOM      5  C   UNL     1       4.522  -8.005  -3.232  1.00  0.00     0.136 C 
BRANCH   5   6
ATOM      6  C   UNL     1       3.222  -8.249  -3.908  1.00  0.00     0.248 C 
ATOM      7  O   UNL     1       3.074  -9.198  -4.671  1.00  0.00    -0.272 OA
ATOM      8  N   UNL     1       2.192  -7.489  -3.677  1.00  0.00    -0.342 N 
BRANCH   8   9
ATOM      9  C   UNL     1       0.816  -7.768  -3.493  1.00  0.00     0.105 CG0
ATOM     10  C   UNL     1       0.556  -8.689  -2.262  1.00  0.00    -0.036 C 
ATOM     11  G   UNL     1       0.037  -6.521  -3.416  1.00  0.00     0.000 G0
ENDBRANCH   8   9
ENDBRANCH   5   6
BRANCH   5  12
ATOM     12  C   UNL     1       4.255  -8.009  -1.750  1.00  0.00    -0.015 A 
ATOM     13  C   UNL     1       3.854  -6.820  -1.099  1.00  0.00    -0.045 A 
ATOM     14  C   UNL     1       4.321  -9.185  -0.971  1.00  0.00    -0.053 A 
ATOM     15  C   UNL     1       3.346  -6.818   0.218  1.00  0.00     0.028 A 
ATOM     16  C   UNL     1       3.929  -9.182   0.382  1.00  0.00    -0.019 A 
ATOM     17  C   UNL     1       3.416  -8.010   0.974  1.00  0.00     0.123 A 
ATOM     18  O   UNL     1       3.004  -8.049   2.161  1.00  0.00    -0.507 OA
BRANCH  15  19
ATOM     19  C   UNL     1       2.666  -5.640   0.614  1.00  0.00     0.027 A 
ATOM     20  C   UNL     1       1.470  -5.346  -0.081  1.00  0.00    -0.047 A 
ATOM     21  C   UNL     1       3.173  -4.692   1.531  1.00  0.00     0.123 A 
ATOM     22  C   UNL     1       0.839  -4.085   0.007  1.00  0.00    -0.045 A 
ATOM     23  O   UNL     1       4.224  -4.922   2.185  1.00  0.00    -0.507 OA
ATOM     24  C   UNL     1       2.508  -3.459   1.697  1.00  0.00    -0.019 A 
ATOM     25  C   UNL     1       1.367  -3.153   0.929  1.00  0.00    -0.055 A 
BRANCH  22  26
ATOM     26  C   UNL     1      -0.320  -3.773  -0.876  1.00  0.00    -0.006 C 
BRANCH  26  27
ATOM     27  C   UNL     1      -0.269  -4.292  -2.355  1.00  0.00     0.048 C 
BRANCH  27  28
ATOM     28  N   UNL     1       0.257  -5.593  -2.523  1.00  0.00    -0.350 N 
ATOM     29  C   UNL     1       0.002  -6.525  -3.407  1.00  0.00     0.242 CG0
ATOM     30  O   UNL     1      -0.951  -6.355  -4.159  1.00  0.00    -0.273 OA
ATOM     31  G   UNL     1       0.829  -7.739  -3.519  1.00  0.00     0.000 G0
ENDBRANCH  27  28
BRANCH  27  32
ATOM     32  C   UNL     1       0.156  -3.287  -3.325  1.00  0.00     0.027 C 
ATOM     33  O   UNL     1      -0.654  -2.607  -3.948  1.00  0.00    -0.403 OA
ATOM     34  O   UNL     1       1.322  -3.067  -3.614  1.00  0.00    -0.826 OA
ENDBRANCH  27  32
ENDBRANCH  26  27
ENDBRANCH  22  26
ENDBRANCH  15  19
ENDBRANCH   5  12
ENDBRANCH   3   5
ENDBRANCH   2   3
BRANCH   2  35
ATOM     35  C   UNL     1       4.518  -4.926  -4.897  1.00  0.00     0.097 C 
BRANCH  35  36
ATOM     36  N   UNL     1       3.229  -5.086  -5.393  1.00  0.00    -0.345 N 
ATOM     37  C   UNL     1       2.631  -4.712  -6.485  1.00  0.00     0.242 C 
ATOM     38  O   UNL     1       1.439  -4.971  -6.386  1.00  0.00    -0.273 OA
BRANCH  37  39
ATOM     39  C   UNL     1       3.116  -4.022  -7.692  1.00  0.00     0.105 C 
ATOM     40  C   UNL     1       2.895  -4.736  -9.053  1.00  0.00    -0.036 C 
BRANCH  39  41
ATOM     41  N   UNL     1       2.430  -2.814  -7.873  1.00  0.00    -0.343 N 
ATOM     42  C   UNL     1       2.645  -1.567  -7.581  1.00  0.00     0.245 C 
ATOM     43  O   UNL     1       1.698  -0.902  -7.983  1.00  0.00    -0.273 OA
BRANCH  42  44
ATOM     44  C   UNL     1       3.710  -0.841  -6.880  1.00  0.00     0.133 C 
BRANCH  44  45
ATOM     45  N   UNL     1       4.991  -1.103  -7.474  1.00  0.00    -0.332 N 
ATOM     46  C   UNL     1       6.016  -1.645  -6.655  1.00  0.00     0.010 C 
BRANCH  45  47
ATOM     47  C   UNL     1       5.233  -0.817  -8.746  1.00  0.00     0.219 C 
ATOM     48  O   UNL     1       5.017   0.311  -9.172  1.00  0.00    -0.275 OA
ATOM     49  C   UNL     1       5.713  -1.749  -9.751  1.00  0.00     0.015 C 
ENDBRANCH  45  47
ENDBRANCH  44  45
BRANCH  44  50
ATOM     50  C   UNL     1       3.735  -0.817  -5.320  1.00  0.00     0.073 C 
ATOM     51  O   UNL     1       2.654  -0.040  -4.811  1.00  0.00    -0.394 OA
ENDBRANCH  44  50
ENDBRANCH  42  44
ENDBRANCH  39  41
ENDBRANCH  37  39
ENDBRANCH  35  36
ENDBRANCH   2  35
TORSDOF 11
ENDMDL
MODEL 5
REMARK VINA RESULT:   -10.321      7.681     13.032
REMARK INTER + INTRA:         -14.321
REMARK INTER:                 -13.029
REMARK INTRA:                  -1.292
REMARK UNBOUND:                 6.861
REMARK SMILES CC(=O)N(C)[C@H](CO)C(=O)N[C@H](C)C(=O)NCC(=O)N(C)[C@@H]1C(=O)N[C@@H](C)C(=O)N[C@H]([C]([O-])O)Cc2ccc(O)c(c2)-c2cc1ccc2O
REMARK SMILES IDX 19 1 18 2 20 3 21 4 22 5 23 6 24 7 25 8 26 9 27 10 45 12
REMARK SMILES IDX 44 13 46 14 43 15 47 16 48 17 49 18 41 19 42 20 39 21 36 22
REMARK SMILES IDX 40 23 38 24 37 25 35 26 31 27 30 28 28 29 29 30 32 32 34 33
REMARK SMILES IDX 33 34 17 35 16 36 14 37 15 38 12 39 13 40 11 41 9 42 10 43
REMARK SMILES IDX 6 44 4 45 5 46 2 47 3 48 1 49 7 50 8 51
REMARK H PARENT
REMARK INDEX MAP 5 1 31 2 12 3 33 4 18 5 23 6 1 7 13 8 22 9 36 10 19 12 25 13
REMARK INDEX MAP 28 14 24 15 34 16 32 17 2 18 27 19 29 20 35 21 26 22 4 23
REMARK INDEX MAP 39 24 37 25 21 26 20 27 14 28 30 29 3 30 40 32 6 33 7 34
REMARK INDEX MAP 38 35 15 36 43 37 8 38 41 39 46 40 16 41 44 42 10 43 42 44
REMARK INDEX MAP 17 45 47 46 48 47 11 48 49 49 45 50 9 51
REMARK Flexibility Score: 80.00
ROOT
ATOM      1  O   UNL     1       5.283 -10.921   0.884  1.00  0.00    -0.273 OA
ATOM      2  C   UNL     1       6.045 -10.231   1.553  1.00  0.00     0.242 C 
ENDROOT
BRANCH   2   3
ATOM      3  N   UNL     1       6.276  -8.961   1.173  1.00  0.00    -0.328 N 
ATOM      4  C   UNL     1       7.583  -8.524   0.851  1.00  0.00     0.010 C 
BRANCH   3   5
ATOM      5  C   UNL     1       5.190  -8.015   1.070  1.00  0.00     0.136 C 
BRANCH   5   6
ATOM      6  C   UNL     1       4.874  -7.288  -0.186  1.00  0.00     0.248 C 
ATOM      7  O   UNL     1       5.724  -7.129  -1.056  1.00  0.00    -0.272 OA
ATOM      8  N   UNL     1       3.676  -6.836  -0.418  1.00  0.00    -0.342 N 
BRANCH   8   9
ATOM      9  C   UNL     1       2.868  -6.813  -1.580  1.00  0.00     0.105 CG0
ATOM     10  C   UNL     1       2.656  -8.234  -2.185  1.00  0.00    -0.036 C 
ATOM     11  G   UNL     1       1.587  -6.137  -1.311  1.00  0.00     0.000 G0
ENDBRANCH   8   9
ENDBRANCH   5   6
BRANCH   5  12
ATOM     12  C   UNL     1       5.264  -6.986   2.167  1.00  0.00    -0.015 A 
ATOM     13  C   UNL     1       4.659  -5.719   1.994  1.00  0.00    -0.045 A 
ATOM     14  C   UNL     1       5.863  -7.253   3.418  1.00  0.00    -0.053 A 
ATOM     15  C   UNL     1       4.474  -4.821   3.067  1.00  0.00     0.028 A 
ATOM     16  C   UNL     1       5.791  -6.320   4.472  1.00  0.00    -0.019 A 
ATOM     17  C   UNL     1       5.077  -5.116   4.311  1.00  0.00     0.123 A 
ATOM     18  O   UNL     1       4.964  -4.332   5.287  1.00  0.00    -0.507 OA
BRANCH  15  19
ATOM     19  C   UNL     1       3.561  -3.764   2.834  1.00  0.00     0.027 A 
ATOM     20  C   UNL     1       2.312  -4.129   2.281  1.00  0.00    -0.047 A 
ATOM     21  C   UNL     1       3.869  -2.392   2.977  1.00  0.00     0.123 A 
ATOM     22  C   UNL     1       1.419  -3.175   1.743  1.00  0.00    -0.045 A 
ATOM     23  O   UNL     1       4.961  -2.024   3.481  1.00  0.00    -0.507 OA
ATOM     24  C   UNL     1       2.952  -1.421   2.523  1.00  0.00    -0.019 A 
ATOM     25  C   UNL     1       1.751  -1.810   1.895  1.00  0.00    -0.055 A 
BRANCH  22  26
ATOM     26  C   UNL     1       0.197  -3.628   1.021  1.00  0.00    -0.006 C 
BRANCH  26  27
ATOM     27  C   UNL     1       0.372  -4.165  -0.442  1.00  0.00     0.048 C 
BRANCH  27  28
ATOM     28  N   UNL     1       1.456  -5.051  -0.637  1.00  0.00    -0.350 N 
ATOM     29  C   UNL     1       1.564  -6.147  -1.345  1.00  0.00     0.242 CG0
ATOM     30  O   UNL     1       0.541  -6.618  -1.832  1.00  0.00    -0.273 OA
ATOM     31  G   UNL     1       2.864  -6.802  -1.571  1.00  0.00     0.000 G0
ENDBRANCH  27  28
BRANCH  27  32
ATOM     32  C   UNL     1       0.161  -3.156  -1.477  1.00  0.00     0.027 C 
ATOM     33  O   UNL     1       0.917  -3.046  -2.436  1.00  0.00    -0.403 OA
ATOM     34  O   UNL     1      -0.745  -2.337  -1.456  1.00  0.00    -0.826 OA
ENDBRANCH  27  32
ENDBRANCH  26  27
ENDBRANCH  22  26
ENDBRANCH  15  19
ENDBRANCH   5  12
ENDBRANCH   3   5
ENDBRANCH   2   3
BRANCH   2  35
ATOM     35  C   UNL     1       6.573 -10.958   2.712  1.00  0.00     0.097 C 
BRANCH  35  36
ATOM     36  N   UNL     1       7.900 -11.325   2.522  1.00  0.00    -0.345 N 
ATOM     37  C   UNL     1       8.984 -11.185   3.227  1.00  0.00     0.242 C 
ATOM     38  O   UNL     1       9.938 -11.550   2.553  1.00  0.00    -0.273 OA
BRANCH  37  39
ATOM     39  C   UNL     1       9.225 -10.639   4.573  1.00  0.00     0.105 C 
ATOM     40  C   UNL     1      10.517 -11.095   5.302  1.00  0.00    -0.036 C 
BRANCH  39  41
ATOM     41  N   UNL     1       9.387  -9.249   4.516  1.00  0.00    -0.343 N 
ATOM     42  C   UNL     1       9.055  -8.240   5.261  1.00  0.00     0.245 C 
ATOM     43  O   UNL     1       9.459  -7.212   4.731  1.00  0.00    -0.273 OA
BRANCH  42  44
ATOM     44  C   UNL     1       8.308  -8.085   6.515  1.00  0.00     0.133 C 
BRANCH  44  45
ATOM     45  N   UNL     1       9.198  -7.881   7.624  1.00  0.00    -0.332 N 
ATOM     46  C   UNL     1      10.104  -6.789   7.570  1.00  0.00     0.010 C 
BRANCH  45  47
ATOM     47  C   UNL     1       9.208  -8.706   8.661  1.00  0.00     0.219 C 
ATOM     48  O   UNL     1       9.729  -9.811   8.561  1.00  0.00    -0.275 OA
ATOM     49  C   UNL     1       8.606  -8.450   9.958  1.00  0.00     0.015 C 
ENDBRANCH  45  47
ENDBRANCH  44  45
BRANCH  44  50
ATOM     50  C   UNL     1       7.120  -9.046   6.834  1.00  0.00     0.073 C 
ATOM     51  O   UNL     1       6.005  -8.316   7.340  1.00  0.00    -0.394 OA
ENDBRANCH  44  50
ENDBRANCH  42  44
ENDBRANCH  39  41
ENDBRANCH  37  39
ENDBRANCH  35  36
ENDBRANCH   2  35
TORSDOF 11
ENDMDL
