MODEL 1
REMARK VINA RESULT:    -7.816      0.000      0.000
REMARK INTER + INTRA:         -11.568
REMARK INTER:                 -10.599
REMARK INTRA:                  -0.969
REMARK UNBOUND:                -1.010
REMARK SMILES CNC(=O)c1cc(Oc2ccc(NC(=O)Nc3ccc(Cl)c(C(F)(F)F)c3)cc2)ccn1
REMARK SMILES IDX 12 1 9 2 11 3 28 4 10 5 29 6 13 7 16 8 14 9 15 11 17 13
REMARK SMILES IDX 21 14 20 15 22 16 19 17 27 18 18 19 23 20 24 21 25 22 26 23
REMARK SMILES IDX 8 24 7 25 6 26 30 27 5 28 31 29 32 30 3 31 4 32 2 33 1 34
REMARK H PARENT 16 10 13 12 2 35
REMARK Flexibility Score: inf
ROOT
ATOM      1  C   UNL     1      83.058  -0.012  11.408  1.00  0.00     0.043 A 
ATOM      2  C   UNL     1      81.225   0.418   9.376  1.00  0.00     0.127 A 
ATOM      3  C   UNL     1      82.700   1.286  11.081  1.00  0.00     0.030 A 
ATOM      4  C   UNL     1      82.520  -1.099  10.739  1.00  0.00     0.030 A 
ATOM      5  C   UNL     1      81.776   1.502  10.059  1.00  0.00     0.049 A 
ATOM      6  C   UNL     1      81.597  -0.882   9.715  1.00  0.00     0.049 A 
ENDROOT
BRANCH   1   7
ATOM      7  N   UNL     1      83.994  -0.231  12.446  1.00  0.00    -0.308 N 
ATOM      8  N   UNL     1      85.953  -0.389  13.659  1.00  0.00    -0.308 N 
ATOM      9  C   UNL     1      85.387  -0.060  12.404  1.00  0.00     0.323 C 
ATOM     10  H   UNL     1      85.298  -0.689  14.377  1.00  0.00     0.171 HD
ATOM     11  O   UNL     1      86.026   0.319  11.427  1.00  0.00    -0.248 OA
ATOM     12  H   UNL     1      83.601  -0.551  13.327  1.00  0.00     0.171 HD
BRANCH   8  13
ATOM     13  C   UNL     1      87.294  -0.358  14.045  1.00  0.00     0.043 A 
ATOM     14  Cl  UNL     1      91.631  -0.300  15.297  1.00  0.00    -0.084 Cl
ATOM     15  C   UNL     1      89.973  -0.298  14.817  1.00  0.00     0.053 A 
ATOM     16  C   UNL     1      89.276   0.894  14.626  1.00  0.00     0.076 A 
ATOM     17  C   UNL     1      89.331  -1.521  14.623  1.00  0.00     0.023 A 
ATOM     18  C   UNL     1      87.935   0.865  14.239  1.00  0.00     0.040 A 
ATOM     19  C   UNL     1      87.991  -1.551  14.237  1.00  0.00     0.028 A 
BRANCH  16  20
ATOM     20  C   UNL     1      89.928   2.225  14.826  1.00  0.00     0.417 C 
ATOM     21  F   UNL     1      90.975   2.451  13.979  1.00  0.00    -0.166 F 
ATOM     22  F   UNL     1      89.082   3.278  14.639  1.00  0.00    -0.166 F 
ATOM     23  F   UNL     1      90.433   2.375  16.084  1.00  0.00    -0.166 F 
ENDBRANCH  16  20
ENDBRANCH   8  13
ENDBRANCH   1   7
BRANCH   2  24
ATOM     24  O   UNL     1      80.326   0.629   8.376  1.00  0.00    -0.457 OA
BRANCH  24  25
ATOM     25  C   UNL     1      79.173   1.331   8.685  1.00  0.00     0.131 A 
ATOM     26  C   UNL     1      78.845   2.448   7.948  1.00  0.00     0.081 A 
ATOM     27  C   UNL     1      78.378   0.894   9.723  1.00  0.00     0.067 A 
ATOM     28  C   UNL     1      77.681   3.114   8.297  1.00  0.00     0.131 A 
ATOM     29  C   UNL     1      77.234   1.629   9.992  1.00  0.00     0.116 A 
ATOM     30  N   UNL     1      76.864   2.732   9.303  1.00  0.00    -0.251 NA
BRANCH  28  31
ATOM     31  C   UNL     1      77.268   4.300   7.566  1.00  0.00     0.269 C 
ATOM     32  O   UNL     1      76.217   4.895   7.868  1.00  0.00    -0.268 OA
ATOM     33  N   UNL     1      78.114   4.743   6.542  1.00  0.00    -0.354 N 
ATOM     34  C   UNL     1      77.854   5.919   5.742  1.00  0.00     0.143 C 
ATOM     35  H   UNL     1      78.975   4.233   6.365  1.00  0.00     0.163 HD
ENDBRANCH  28  31
ENDBRANCH  24  25
ENDBRANCH   2  24
TORSDOF 6
ENDMDL
MODEL 2
REMARK VINA RESULT:    -7.721      2.120      2.570
REMARK INTER + INTRA:         -11.439
REMARK INTER:                 -11.004
REMARK INTRA:                  -0.435
REMARK UNBOUND:                -1.010
REMARK SMILES CNC(=O)c1cc(Oc2ccc(NC(=O)Nc3ccc(Cl)c(C(F)(F)F)c3)cc2)ccn1
REMARK SMILES IDX 12 1 9 2 11 3 28 4 10 5 29 6 13 7 16 8 14 9 15 11 17 13
REMARK SMILES IDX 21 14 20 15 22 16 19 17 27 18 18 19 23 20 24 21 25 22 26 23
REMARK SMILES IDX 8 24 7 25 6 26 30 27 5 28 31 29 32 30 3 31 4 32 2 33 1 34
REMARK H PARENT 16 10 13 12 2 35
REMARK Flexibility Score: inf
ROOT
ATOM      1  C   UNL     1      82.871   1.570  10.898  1.00  0.00     0.043 A 
ATOM      2  C   UNL     1      80.580   0.951   9.469  1.00  0.00     0.127 A 
ATOM      3  C   UNL     1      81.739   1.152  11.579  1.00  0.00     0.030 A 
ATOM      4  C   UNL     1      82.881   1.687   9.518  1.00  0.00     0.030 A 
ATOM      5  C   UNL     1      80.586   0.840  10.859  1.00  0.00     0.049 A 
ATOM      6  C   UNL     1      81.727   1.374   8.798  1.00  0.00     0.049 A 
ENDROOT
BRANCH   1   7
ATOM      7  N   UNL     1      84.041   1.886  11.628  1.00  0.00    -0.308 N 
ATOM      8  N   UNL     1      86.028   1.731  12.795  1.00  0.00    -0.308 N 
ATOM      9  C   UNL     1      85.018   1.006  12.118  1.00  0.00     0.323 C 
ATOM     10  H   UNL     1      85.905   2.740  12.827  1.00  0.00     0.171 HD
ATOM     11  O   UNL     1      85.006  -0.214  11.983  1.00  0.00    -0.248 OA
ATOM     12  H   UNL     1      84.184   2.875  11.816  1.00  0.00     0.171 HD
BRANCH   8  13
ATOM     13  C   UNL     1      87.174   1.247  13.427  1.00  0.00     0.043 A 
ATOM     14  Cl  UNL     1      90.896  -0.283  15.475  1.00  0.00    -0.084 Cl
ATOM     15  C   UNL     1      89.465   0.279  14.690  1.00  0.00     0.053 A 
ATOM     16  C   UNL     1      88.509  -0.611  14.202  1.00  0.00     0.076 A 
ATOM     17  C   UNL     1      89.276   1.653  14.546  1.00  0.00     0.023 A 
ATOM     18  C   UNL     1      87.363  -0.128  13.570  1.00  0.00     0.040 A 
ATOM     19  C   UNL     1      88.130   2.138  13.915  1.00  0.00     0.028 A 
BRANCH  16  20
ATOM     20  C   UNL     1      88.676  -2.091  14.334  1.00  0.00     0.417 C 
ATOM     21  F   UNL     1      89.909  -2.536  13.953  1.00  0.00    -0.166 F 
ATOM     22  F   UNL     1      88.510  -2.545  15.610  1.00  0.00    -0.166 F 
ATOM     23  F   UNL     1      87.782  -2.787  13.575  1.00  0.00    -0.166 F 
ENDBRANCH  16  20
ENDBRANCH   8  13
ENDBRANCH   1   7
BRANCH   2  24
ATOM     24  O   UNL     1      79.454   0.649   8.767  1.00  0.00    -0.457 OA
BRANCH  24  25
ATOM     25  C   UNL     1      78.427   1.578   8.766  1.00  0.00     0.131 A 
ATOM     26  C   UNL     1      78.515   2.680   7.942  1.00  0.00     0.081 A 
ATOM     27  C   UNL     1      77.339   1.379   9.589  1.00  0.00     0.067 A 
ATOM     28  C   UNL     1      77.461   3.579   7.978  1.00  0.00     0.131 A 
ATOM     29  C   UNL     1      76.338   2.337   9.551  1.00  0.00     0.116 A 
ATOM     30  N   UNL     1      76.371   3.436   8.764  1.00  0.00    -0.251 NA
BRANCH  28  31
ATOM     31  C   UNL     1      77.481   4.764   7.138  1.00  0.00     0.269 C 
ATOM     32  O   UNL     1      78.536   5.133   6.590  1.00  0.00    -0.268 OA
ATOM     33  N   UNL     1      76.268   5.442   6.964  1.00  0.00    -0.354 N 
ATOM     34  C   UNL     1      76.121   6.621   6.141  1.00  0.00     0.143 C 
ATOM     35  H   UNL     1      75.434   5.072   7.412  1.00  0.00     0.163 HD
ENDBRANCH  28  31
ENDBRANCH  24  25
ENDBRANCH   2  24
TORSDOF 6
ENDMDL
MODEL 3
REMARK VINA RESULT:    -7.680      2.148      2.611
REMARK INTER + INTRA:         -11.384
REMARK INTER:                 -10.932
REMARK INTRA:                  -0.452
REMARK UNBOUND:                -1.010
REMARK SMILES CNC(=O)c1cc(Oc2ccc(NC(=O)Nc3ccc(Cl)c(C(F)(F)F)c3)cc2)ccn1
REMARK SMILES IDX 12 1 9 2 11 3 28 4 10 5 29 6 13 7 16 8 14 9 15 11 17 13
REMARK SMILES IDX 21 14 20 15 22 16 19 17 27 18 18 19 23 20 24 21 25 22 26 23
REMARK SMILES IDX 8 24 7 25 6 26 30 27 5 28 31 29 32 30 3 31 4 32 2 33 1 34
REMARK H PARENT 16 10 13 12 2 35
REMARK Flexibility Score: inf
ROOT
ATOM      1  C   UNL     1      82.917   1.654  10.926  1.00  0.00     0.043 A 
ATOM      2  C   UNL     1      80.779   1.189   9.227  1.00  0.00     0.127 A 
ATOM      3  C   UNL     1      83.069   1.880   9.568  1.00  0.00     0.030 A 
ATOM      4  C   UNL     1      81.719   1.199  11.453  1.00  0.00     0.030 A 
ATOM      5  C   UNL     1      81.992   1.646   8.713  1.00  0.00     0.049 A 
ATOM      6  C   UNL     1      80.643   0.965  10.597  1.00  0.00     0.049 A 
ENDROOT
BRANCH   1   7
ATOM      7  N   UNL     1      84.009   1.891  11.794  1.00  0.00    -0.308 N 
ATOM      8  N   UNL     1      85.959   1.656  13.009  1.00  0.00    -0.308 N 
ATOM      9  C   UNL     1      85.079   1.032  12.092  1.00  0.00     0.323 C 
ATOM     10  H   UNL     1      85.700   2.593  13.306  1.00  0.00     0.171 HD
ATOM     11  O   UNL     1      85.234  -0.094  11.629  1.00  0.00    -0.248 OA
ATOM     12  H   UNL     1      84.012   2.798  12.253  1.00  0.00     0.171 HD
BRANCH   8  13
ATOM     13  C   UNL     1      87.138   1.154  13.563  1.00  0.00     0.043 A 
ATOM     14  Cl  UNL     1      90.967  -0.428  15.357  1.00  0.00    -0.084 Cl
ATOM     15  C   UNL     1      89.495   0.153  14.669  1.00  0.00     0.053 A 
ATOM     16  C   UNL     1      88.501  -0.723  14.235  1.00  0.00     0.076 A 
ATOM     17  C   UNL     1      89.311   1.531  14.550  1.00  0.00     0.023 A 
ATOM     18  C   UNL     1      87.322  -0.223  13.682  1.00  0.00     0.040 A 
ATOM     19  C   UNL     1      88.132   2.032  13.996  1.00  0.00     0.028 A 
BRANCH  16  20
ATOM     20  C   UNL     1      88.661  -2.206  14.344  1.00  0.00     0.417 C 
ATOM     21  F   UNL     1      89.902  -2.647  13.983  1.00  0.00    -0.166 F 
ATOM     22  F   UNL     1      88.465  -2.682  15.607  1.00  0.00    -0.166 F 
ATOM     23  F   UNL     1      87.783  -2.885  13.552  1.00  0.00    -0.166 F 
ENDBRANCH  16  20
ENDBRANCH   8  13
ENDBRANCH   1   7
BRANCH   2  24
ATOM     24  O   UNL     1      79.729   0.958   8.392  1.00  0.00    -0.457 OA
BRANCH  24  25
ATOM     25  C   UNL     1      78.786   1.963   8.252  1.00  0.00     0.131 A 
ATOM     26  C   UNL     1      78.979   2.940   7.300  1.00  0.00     0.081 A 
ATOM     27  C   UNL     1      77.675   1.961   9.068  1.00  0.00     0.067 A 
ATOM     28  C   UNL     1      78.006   3.922   7.199  1.00  0.00     0.131 A 
ATOM     29  C   UNL     1      76.760   2.986   8.887  1.00  0.00     0.116 A 
ATOM     30  N   UNL     1      76.898   3.971   7.971  1.00  0.00    -0.251 NA
BRANCH  28  31
ATOM     31  C   UNL     1      78.138   4.987   6.219  1.00  0.00     0.269 C 
ATOM     32  O   UNL     1      77.803   6.152   6.502  1.00  0.00    -0.268 OA
ATOM     33  N   UNL     1      78.677   4.642   4.974  1.00  0.00    -0.354 N 
ATOM     34  C   UNL     1      78.893   5.592   3.905  1.00  0.00     0.143 C 
ATOM     35  H   UNL     1      78.963   3.680   4.814  1.00  0.00     0.163 HD
ENDBRANCH  28  31
ENDBRANCH  24  25
ENDBRANCH   2  24
TORSDOF 6
ENDMDL
MODEL 4
REMARK VINA RESULT:    -7.653      1.855      2.297
REMARK INTER + INTRA:         -11.348
REMARK INTER:                 -10.383
REMARK INTRA:                  -0.965
REMARK UNBOUND:                -1.010
REMARK SMILES CNC(=O)c1cc(Oc2ccc(NC(=O)Nc3ccc(Cl)c(C(F)(F)F)c3)cc2)ccn1
REMARK SMILES IDX 12 1 9 2 11 3 28 4 10 5 29 6 13 7 16 8 14 9 15 11 17 13
REMARK SMILES IDX 21 14 20 15 22 16 19 17 27 18 18 19 23 20 24 21 25 22 26 23
REMARK SMILES IDX 8 24 7 25 6 26 30 27 5 28 31 29 32 30 3 31 4 32 2 33 1 34
REMARK H PARENT 16 10 13 12 2 35
REMARK Flexibility Score: inf
ROOT
ATOM      1  C   UNL     1      82.973  -0.016  11.276  1.00  0.00     0.043 A 
ATOM      2  C   UNL     1      81.104   0.456   9.287  1.00  0.00     0.127 A 
ATOM      3  C   UNL     1      82.649   1.291  10.946  1.00  0.00     0.030 A 
ATOM      4  C   UNL     1      82.383  -1.091  10.631  1.00  0.00     0.030 A 
ATOM      5  C   UNL     1      81.707   1.528   9.945  1.00  0.00     0.049 A 
ATOM      6  C   UNL     1      81.441  -0.852   9.630  1.00  0.00     0.049 A 
ENDROOT
BRANCH   1   7
ATOM      7  N   UNL     1      83.927  -0.256  12.292  1.00  0.00    -0.308 N 
ATOM      8  N   UNL     1      85.912  -0.485  13.451  1.00  0.00    -0.308 N 
ATOM      9  C   UNL     1      85.326  -0.159  12.205  1.00  0.00     0.323 C 
ATOM     10  H   UNL     1      85.265  -0.731  14.196  1.00  0.00     0.171 HD
ATOM     11  O   UNL     1      85.953   0.159  11.199  1.00  0.00    -0.248 OA
ATOM     12  H   UNL     1      83.546  -0.532  13.193  1.00  0.00     0.171 HD
BRANCH   8  13
ATOM     13  C   UNL     1      87.264  -0.514  13.797  1.00  0.00     0.043 A 
ATOM     14  Cl  UNL     1      91.633  -0.573  14.934  1.00  0.00    -0.084 Cl
ATOM     15  C   UNL     1      89.966  -0.572  14.488  1.00  0.00     0.053 A 
ATOM     16  C   UNL     1      89.436  -1.561  13.660  1.00  0.00     0.076 A 
ATOM     17  C   UNL     1      89.144   0.447  14.970  1.00  0.00     0.023 A 
ATOM     18  C   UNL     1      88.085  -1.533  13.314  1.00  0.00     0.040 A 
ATOM     19  C   UNL     1      87.793   0.476  14.625  1.00  0.00     0.028 A 
BRANCH  16  20
ATOM     20  C   UNL     1      90.284  -2.668  13.120  1.00  0.00     0.417 C 
ATOM     21  F   UNL     1      89.573  -3.621  12.450  1.00  0.00    -0.166 F 
ATOM     22  F   UNL     1      91.235  -2.245  12.239  1.00  0.00    -0.166 F 
ATOM     23  F   UNL     1      90.959  -3.334  14.101  1.00  0.00    -0.166 F 
ENDBRANCH  16  20
ENDBRANCH   8  13
ENDBRANCH   1   7
BRANCH   2  24
ATOM     24  O   UNL     1      80.186   0.688   8.308  1.00  0.00    -0.457 OA
BRANCH  24  25
ATOM     25  C   UNL     1      79.051   1.405   8.647  1.00  0.00     0.131 A 
ATOM     26  C   UNL     1      78.722   2.529   7.920  1.00  0.00     0.081 A 
ATOM     27  C   UNL     1      78.275   0.977   9.703  1.00  0.00     0.067 A 
ATOM     28  C   UNL     1      77.576   3.210   8.299  1.00  0.00     0.131 A 
ATOM     29  C   UNL     1      77.149   1.728  10.001  1.00  0.00     0.116 A 
ATOM     30  N   UNL     1      76.779   2.838   9.324  1.00  0.00    -0.251 NA
BRANCH  28  31
ATOM     31  C   UNL     1      77.164   4.405   7.581  1.00  0.00     0.269 C 
ATOM     32  O   UNL     1      76.121   5.006   7.900  1.00  0.00    -0.268 OA
ATOM     33  N   UNL     1      78.000   4.848   6.549  1.00  0.00    -0.354 N 
ATOM     34  C   UNL     1      77.739   6.032   5.761  1.00  0.00     0.143 C 
ATOM     35  H   UNL     1      78.855   4.334   6.358  1.00  0.00     0.163 HD
ENDBRANCH  28  31
ENDBRANCH  24  25
ENDBRANCH   2  24
TORSDOF 6
ENDMDL
MODEL 5
REMARK VINA RESULT:    -7.595      6.550     10.900
REMARK INTER + INTRA:         -11.269
REMARK INTER:                 -10.258
REMARK INTRA:                  -1.011
REMARK UNBOUND:                -1.010
REMARK SMILES CNC(=O)c1cc(Oc2ccc(NC(=O)Nc3ccc(Cl)c(C(F)(F)F)c3)cc2)ccn1
REMARK SMILES IDX 12 1 9 2 11 3 28 4 10 5 29 6 13 7 16 8 14 9 15 11 17 13
REMARK SMILES IDX 21 14 20 15 22 16 19 17 27 18 18 19 23 20 24 21 25 22 26 23
REMARK SMILES IDX 8 24 7 25 6 26 30 27 5 28 31 29 32 30 3 31 4 32 2 33 1 34
REMARK H PARENT 16 10 13 12 2 35
REMARK Flexibility Score: inf
ROOT
ATOM      1  C   UNL     1      85.685   2.867  10.500  1.00  0.00     0.043 A 
ATOM      2  C   UNL     1      86.270   0.241  11.163  1.00  0.00     0.127 A 
ATOM      3  C   UNL     1      86.990   2.414  10.388  1.00  0.00     0.030 A 
ATOM      4  C   UNL     1      84.667   2.035  10.938  1.00  0.00     0.030 A 
ATOM      5  C   UNL     1      87.284   1.091  10.721  1.00  0.00     0.049 A 
ATOM      6  C   UNL     1      84.962   0.712  11.271  1.00  0.00     0.049 A 
ENDROOT
BRANCH   1   7
ATOM      7  N   UNL     1      85.387   4.207  10.162  1.00  0.00    -0.308 N 
ATOM      8  N   UNL     1      84.978   6.477  10.276  1.00  0.00    -0.308 N 
ATOM      9  C   UNL     1      85.300   5.316  11.019  1.00  0.00     0.323 C 
ATOM     10  H   UNL     1      84.862   6.347   9.275  1.00  0.00     0.171 HD
ATOM     11  O   UNL     1      85.475   5.289  12.233  1.00  0.00    -0.248 OA
ATOM     12  H   UNL     1      85.216   4.380   9.175  1.00  0.00     0.171 HD
BRANCH   8  13
ATOM     13  C   UNL     1      84.798   7.783  10.735  1.00  0.00     0.043 A 
ATOM     14  Cl  UNL     1      84.252  12.017  12.206  1.00  0.00    -0.084 Cl
ATOM     15  C   UNL     1      84.439  10.392  11.654  1.00  0.00     0.053 A 
ATOM     16  C   UNL     1      83.500   9.409  11.962  1.00  0.00     0.076 A 
ATOM     17  C   UNL     1      85.559  10.071  10.886  1.00  0.00     0.023 A 
ATOM     18  C   UNL     1      83.679   8.104  11.503  1.00  0.00     0.040 A 
ATOM     19  C   UNL     1      85.738   8.766  10.427  1.00  0.00     0.028 A 
BRANCH  16  20
ATOM     20  C   UNL     1      82.288   9.713  12.784  1.00  0.00     0.417 C 
ATOM     21  F   UNL     1      81.435  10.597  12.189  1.00  0.00    -0.166 F 
ATOM     22  F   UNL     1      81.529   8.613  13.060  1.00  0.00    -0.166 F 
ATOM     23  F   UNL     1      82.601  10.259  13.993  1.00  0.00    -0.166 F 
ENDBRANCH  16  20
ENDBRANCH   8  13
ENDBRANCH   1   7
BRANCH   2  24
ATOM     24  O   UNL     1      86.558  -1.049  11.490  1.00  0.00    -0.457 OA
BRANCH  24  25
ATOM     25  C   UNL     1      87.274  -1.272  12.654  1.00  0.00     0.131 A 
ATOM     26  C   UNL     1      88.539  -1.814  12.573  1.00  0.00     0.081 A 
ATOM     27  C   UNL     1      86.706  -0.947  13.867  1.00  0.00     0.067 A 
ATOM     28  C   UNL     1      89.214  -2.017  13.766  1.00  0.00     0.131 A 
ATOM     29  C   UNL     1      87.464  -1.188  15.002  1.00  0.00     0.116 A 
ATOM     30  N   UNL     1      88.708  -1.718  14.982  1.00  0.00    -0.251 NA
BRANCH  28  31
ATOM     31  C   UNL     1      90.552  -2.585  13.763  1.00  0.00     0.269 C 
ATOM     32  O   UNL     1      90.723  -3.800  13.555  1.00  0.00    -0.268 OA
ATOM     33  N   UNL     1      91.618  -1.703  13.978  1.00  0.00    -0.354 N 
ATOM     34  C   UNL     1      93.005  -2.111  13.980  1.00  0.00     0.143 C 
ATOM     35  H   UNL     1      91.417  -0.716  14.109  1.00  0.00     0.163 HD
ENDBRANCH  28  31
ENDBRANCH  24  25
ENDBRANCH   2  24
TORSDOF 6
ENDMDL
MODEL 6
REMARK VINA RESULT:    -7.474      1.345      2.058
REMARK INTER + INTRA:         -11.105
REMARK INTER:                 -10.091
REMARK INTRA:                  -1.014
REMARK UNBOUND:                -1.010
REMARK SMILES CNC(=O)c1cc(Oc2ccc(NC(=O)Nc3ccc(Cl)c(C(F)(F)F)c3)cc2)ccn1
REMARK SMILES IDX 12 1 9 2 11 3 28 4 10 5 29 6 13 7 16 8 14 9 15 11 17 13
REMARK SMILES IDX 21 14 20 15 22 16 19 17 27 18 18 19 23 20 24 21 25 22 26 23
REMARK SMILES IDX 8 24 7 25 6 26 30 27 5 28 31 29 32 30 3 31 4 32 2 33 1 34
REMARK H PARENT 16 10 13 12 2 35
REMARK Flexibility Score: inf
ROOT
ATOM      1  C   UNL     1      82.975  -0.083  11.390  1.00  0.00     0.043 A 
ATOM      2  C   UNL     1      81.151   0.205   9.326  1.00  0.00     0.127 A 
ATOM      3  C   UNL     1      82.787  -1.129  10.500  1.00  0.00     0.030 A 
ATOM      4  C   UNL     1      82.269   1.102  11.270  1.00  0.00     0.030 A 
ATOM      5  C   UNL     1      81.869  -0.983   9.461  1.00  0.00     0.049 A 
ATOM      6  C   UNL     1      81.350   1.247  10.230  1.00  0.00     0.049 A 
ENDROOT
BRANCH   1   7
ATOM      7  N   UNL     1      83.906  -0.231  12.444  1.00  0.00    -0.308 N 
ATOM      8  N   UNL     1      85.860  -0.304  13.674  1.00  0.00    -0.308 N 
ATOM      9  C   UNL     1      85.300  -0.062  12.397  1.00  0.00     0.323 C 
ATOM     10  H   UNL     1      85.203  -0.555  14.408  1.00  0.00     0.171 HD
ATOM     11  O   UNL     1      85.943   0.250  11.399  1.00  0.00    -0.248 OA
ATOM     12  H   UNL     1      83.510  -0.490  13.344  1.00  0.00     0.171 HD
BRANCH   8  13
ATOM     13  C   UNL     1      87.199  -0.247  14.063  1.00  0.00     0.043 A 
ATOM     14  Cl  UNL     1      91.532  -0.101  15.324  1.00  0.00    -0.084 Cl
ATOM     15  C   UNL     1      89.876  -0.132  14.841  1.00  0.00     0.053 A 
ATOM     16  C   UNL     1      89.151   1.045  14.662  1.00  0.00     0.076 A 
ATOM     17  C   UNL     1      89.263  -1.367  14.631  1.00  0.00     0.023 A 
ATOM     18  C   UNL     1      87.812   0.989  14.273  1.00  0.00     0.040 A 
ATOM     19  C   UNL     1      87.924  -1.425  14.242  1.00  0.00     0.028 A 
BRANCH  16  20
ATOM     20  C   UNL     1      89.771   2.389  14.879  1.00  0.00     0.417 C 
ATOM     21  F   UNL     1      90.253   2.568  16.144  1.00  0.00    -0.166 F 
ATOM     22  F   UNL     1      90.827   2.639  14.054  1.00  0.00    -0.166 F 
ATOM     23  F   UNL     1      88.890   3.409  14.673  1.00  0.00    -0.166 F 
ENDBRANCH  16  20
ENDBRANCH   8  13
ENDBRANCH   1   7
BRANCH   2  24
ATOM     24  O   UNL     1      80.253   0.346   8.312  1.00  0.00    -0.457 OA
BRANCH  24  25
ATOM     25  C   UNL     1      80.359   1.470   7.510  1.00  0.00     0.131 A 
ATOM     26  C   UNL     1      79.374   2.432   7.564  1.00  0.00     0.081 A 
ATOM     27  C   UNL     1      81.450   1.601   6.677  1.00  0.00     0.067 A 
ATOM     28  C   UNL     1      79.529   3.538   6.742  1.00  0.00     0.131 A 
ATOM     29  C   UNL     1      81.511   2.744   5.896  1.00  0.00     0.116 A 
ATOM     30  N   UNL     1      80.575   3.719   5.907  1.00  0.00    -0.251 NA
BRANCH  28  31
ATOM     31  C   UNL     1      78.532   4.595   6.742  1.00  0.00     0.269 C 
ATOM     32  O   UNL     1      77.708   4.688   7.671  1.00  0.00    -0.268 OA
ATOM     33  N   UNL     1      78.564   5.501   5.675  1.00  0.00    -0.354 N 
ATOM     34  C   UNL     1      77.655   6.618   5.546  1.00  0.00     0.143 C 
ATOM     35  H   UNL     1      79.282   5.392   4.964  1.00  0.00     0.163 HD
ENDBRANCH  28  31
ENDBRANCH  24  25
ENDBRANCH   2  24
TORSDOF 6
ENDMDL
MODEL 7
REMARK VINA RESULT:    -7.365      7.169     10.230
REMARK INTER + INTRA:         -10.959
REMARK INTER:                 -10.198
REMARK INTRA:                  -0.761
REMARK UNBOUND:                -1.010
REMARK SMILES CNC(=O)c1cc(Oc2ccc(NC(=O)Nc3ccc(Cl)c(C(F)(F)F)c3)cc2)ccn1
REMARK SMILES IDX 12 1 9 2 11 3 28 4 10 5 29 6 13 7 16 8 14 9 15 11 17 13
REMARK SMILES IDX 21 14 20 15 22 16 19 17 27 18 18 19 23 20 24 21 25 22 26 23
REMARK SMILES IDX 8 24 7 25 6 26 30 27 5 28 31 29 32 30 3 31 4 32 2 33 1 34
REMARK H PARENT 16 10 13 12 2 35
REMARK Flexibility Score: inf
ROOT
ATOM      1  C   UNL     1      82.338   1.340  10.072  1.00  0.00     0.043 A 
ATOM      2  C   UNL     1      84.753   2.678  10.300  1.00  0.00     0.127 A 
ATOM      3  C   UNL     1      83.004   1.335  11.287  1.00  0.00     0.030 A 
ATOM      4  C   UNL     1      82.855   1.998   8.968  1.00  0.00     0.030 A 
ATOM      5  C   UNL     1      84.220   2.010  11.402  1.00  0.00     0.049 A 
ATOM      6  C   UNL     1      84.072   2.673   9.084  1.00  0.00     0.049 A 
ENDROOT
BRANCH   1   7
ATOM      7  N   UNL     1      81.106   0.657   9.956  1.00  0.00    -0.308 N 
ATOM      8  N   UNL     1      79.470  -0.872   9.386  1.00  0.00    -0.308 N 
ATOM      9  C   UNL     1      80.834  -0.522   9.242  1.00  0.00     0.323 C 
ATOM     10  H   UNL     1      78.909  -0.247   9.959  1.00  0.00     0.171 HD
ATOM     11  O   UNL     1      81.654  -1.159   8.587  1.00  0.00    -0.248 OA
ATOM     12  H   UNL     1      80.325   1.076  10.454  1.00  0.00     0.171 HD
BRANCH   8  13
ATOM     13  C   UNL     1      78.789  -1.962   8.843  1.00  0.00     0.043 A 
ATOM     14  Cl  UNL     1      76.555  -5.464   7.073  1.00  0.00    -0.084 Cl
ATOM     15  C   UNL     1      77.425  -4.141   7.760  1.00  0.00     0.053 A 
ATOM     16  C   UNL     1      78.524  -4.350   8.591  1.00  0.00     0.076 A 
ATOM     17  C   UNL     1      77.007  -2.842   7.470  1.00  0.00     0.023 A 
ATOM     18  C   UNL     1      79.207  -3.260   9.134  1.00  0.00     0.040 A 
ATOM     19  C   UNL     1      77.689  -1.752   8.011  1.00  0.00     0.028 A 
BRANCH  16  20
ATOM     20  C   UNL     1      79.003  -5.726   8.928  1.00  0.00     0.417 C 
ATOM     21  F   UNL     1      78.289  -6.321   9.929  1.00  0.00    -0.166 F 
ATOM     22  F   UNL     1      78.940  -6.595   7.878  1.00  0.00    -0.166 F 
ATOM     23  F   UNL     1      80.302  -5.740   9.342  1.00  0.00    -0.166 F 
ENDBRANCH  16  20
ENDBRANCH   8  13
ENDBRANCH   1   7
BRANCH   2  24
ATOM     24  O   UNL     1      85.941   3.334  10.411  1.00  0.00    -0.457 OA
BRANCH  24  25
ATOM     25  C   UNL     1      85.991   4.437  11.248  1.00  0.00     0.131 A 
ATOM     26  C   UNL     1      85.287   5.573  10.909  1.00  0.00     0.081 A 
ATOM     27  C   UNL     1      86.742   4.372  12.402  1.00  0.00     0.067 A 
ATOM     28  C   UNL     1      85.369   6.647  11.781  1.00  0.00     0.131 A 
ATOM     29  C   UNL     1      86.758   5.500  13.206  1.00  0.00     0.116 A 
ATOM     30  N   UNL     1      86.089   6.641  12.924  1.00  0.00    -0.251 NA
BRANCH  28  31
ATOM     31  C   UNL     1      84.656   7.880  11.492  1.00  0.00     0.269 C 
ATOM     32  O   UNL     1      83.903   7.959  10.503  1.00  0.00    -0.268 OA
ATOM     33  N   UNL     1      84.838   8.944  12.383  1.00  0.00    -0.354 N 
ATOM     34  C   UNL     1      84.180  10.224  12.246  1.00  0.00     0.143 C 
ATOM     35  H   UNL     1      85.439   8.808  13.191  1.00  0.00     0.163 HD
ENDBRANCH  28  31
ENDBRANCH  24  25
ENDBRANCH   2  24
TORSDOF 6
ENDMDL
MODEL 8
REMARK VINA RESULT:    -7.352      2.333      3.049
REMARK INTER + INTRA:         -10.941
REMARK INTER:                  -9.975
REMARK INTRA:                  -0.967
REMARK UNBOUND:                -1.010
REMARK SMILES CNC(=O)c1cc(Oc2ccc(NC(=O)Nc3ccc(Cl)c(C(F)(F)F)c3)cc2)ccn1
REMARK SMILES IDX 12 1 9 2 11 3 28 4 10 5 29 6 13 7 16 8 14 9 15 11 17 13
REMARK SMILES IDX 21 14 20 15 22 16 19 17 27 18 18 19 23 20 24 21 25 22 26 23
REMARK SMILES IDX 8 24 7 25 6 26 30 27 5 28 31 29 32 30 3 31 4 32 2 33 1 34
REMARK H PARENT 16 10 13 12 2 35
REMARK Flexibility Score: inf
ROOT
ATOM      1  C   UNL     1      82.858  -0.111  11.411  1.00  0.00     0.043 A 
ATOM      2  C   UNL     1      80.894   0.230   9.488  1.00  0.00     0.127 A 
ATOM      3  C   UNL     1      82.600  -1.137  10.516  1.00  0.00     0.030 A 
ATOM      4  C   UNL     1      82.154   1.081  11.365  1.00  0.00     0.030 A 
ATOM      5  C   UNL     1      81.612  -0.965   9.547  1.00  0.00     0.049 A 
ATOM      6  C   UNL     1      81.165   1.252  10.396  1.00  0.00     0.049 A 
ENDROOT
BRANCH   1   7
ATOM      7  N   UNL     1      83.861  -0.286  12.394  1.00  0.00    -0.308 N 
ATOM      8  N   UNL     1      85.899  -0.502  13.458  1.00  0.00    -0.308 N 
ATOM      9  C   UNL     1      85.253  -0.299  12.215  1.00  0.00     0.323 C 
ATOM     10  H   UNL     1      85.289  -0.604  14.264  1.00  0.00     0.171 HD
ATOM     11  O   UNL     1      85.832  -0.157  11.141  1.00  0.00    -0.248 OA
ATOM     12  H   UNL     1      83.523  -0.416  13.343  1.00  0.00     0.171 HD
BRANCH   8  13
ATOM     13  C   UNL     1      87.266  -0.581  13.727  1.00  0.00     0.043 A 
ATOM     14  Cl  UNL     1      91.688  -0.802  14.614  1.00  0.00    -0.084 Cl
ATOM     15  C   UNL     1      89.999  -0.739  14.263  1.00  0.00     0.053 A 
ATOM     16  C   UNL     1      89.384  -1.717  13.483  1.00  0.00     0.076 A 
ATOM     17  C   UNL     1      89.248   0.319  14.775  1.00  0.00     0.023 A 
ATOM     18  C   UNL     1      88.017  -1.639  13.214  1.00  0.00     0.040 A 
ATOM     19  C   UNL     1      87.881   0.398  14.507  1.00  0.00     0.028 A 
BRANCH  16  20
ATOM     20  C   UNL     1      90.155  -2.865  12.914  1.00  0.00     0.417 C 
ATOM     21  F   UNL     1      91.122  -2.486  12.028  1.00  0.00    -0.166 F 
ATOM     22  F   UNL     1      90.804  -3.605  13.858  1.00  0.00    -0.166 F 
ATOM     23  F   UNL     1      89.360  -3.743  12.238  1.00  0.00    -0.166 F 
ENDBRANCH  16  20
ENDBRANCH   8  13
ENDBRANCH   1   7
BRANCH   2  24
ATOM     24  O   UNL     1      79.928   0.397   8.543  1.00  0.00    -0.457 OA
BRANCH  24  25
ATOM     25  C   UNL     1      80.062   1.461   7.667  1.00  0.00     0.131 A 
ATOM     26  C   UNL     1      79.147   2.491   7.712  1.00  0.00     0.081 A 
ATOM     27  C   UNL     1      81.108   1.465   6.769  1.00  0.00     0.067 A 
ATOM     28  C   UNL     1      79.327   3.532   6.815  1.00  0.00     0.131 A 
ATOM     29  C   UNL     1      81.200   2.553   5.915  1.00  0.00     0.116 A 
ATOM     30  N   UNL     1      80.332   3.590   5.914  1.00  0.00    -0.251 NA
BRANCH  28  31
ATOM     31  C   UNL     1      78.404   4.654   6.802  1.00  0.00     0.269 C 
ATOM     32  O   UNL     1      77.574   4.802   7.718  1.00  0.00    -0.268 OA
ATOM     33  N   UNL     1      78.512   5.555   5.736  1.00  0.00    -0.354 N 
ATOM     34  C   UNL     1      77.684   6.731   5.595  1.00  0.00     0.143 C 
ATOM     35  H   UNL     1      79.232   5.399   5.035  1.00  0.00     0.163 HD
ENDBRANCH  28  31
ENDBRANCH  24  25
ENDBRANCH   2  24
TORSDOF 6
ENDMDL
MODEL 9
REMARK VINA RESULT:    -7.337      1.370      1.591
REMARK INTER + INTRA:         -10.920
REMARK INTER:                 -10.000
REMARK INTRA:                  -0.920
REMARK UNBOUND:                -1.010
REMARK SMILES CNC(=O)c1cc(Oc2ccc(NC(=O)Nc3ccc(Cl)c(C(F)(F)F)c3)cc2)ccn1
REMARK SMILES IDX 12 1 9 2 11 3 28 4 10 5 29 6 13 7 16 8 14 9 15 11 17 13
REMARK SMILES IDX 21 14 20 15 22 16 19 17 27 18 18 19 23 20 24 21 25 22 26 23
REMARK SMILES IDX 8 24 7 25 6 26 30 27 5 28 31 29 32 30 3 31 4 32 2 33 1 34
REMARK H PARENT 16 10 13 12 2 35
REMARK Flexibility Score: inf
ROOT
ATOM      1  C   UNL     1      83.566   0.473  10.798  1.00  0.00     0.043 A 
ATOM      2  C   UNL     1      80.865   0.090  10.316  1.00  0.00     0.127 A 
ATOM      3  C   UNL     1      82.640   1.270  11.453  1.00  0.00     0.030 A 
ATOM      4  C   UNL     1      83.169  -0.510   9.906  1.00  0.00     0.030 A 
ATOM      5  C   UNL     1      81.281   1.076  11.211  1.00  0.00     0.049 A 
ATOM      6  C   UNL     1      81.808  -0.703   9.665  1.00  0.00     0.049 A 
ENDROOT
BRANCH   1   7
ATOM      7  N   UNL     1      84.945   0.669  11.044  1.00  0.00    -0.308 N 
ATOM      8  N   UNL     1      87.032   0.698  12.032  1.00  0.00    -0.308 N 
ATOM      9  C   UNL     1      85.675   0.330  12.194  1.00  0.00     0.323 C 
ATOM     10  H   UNL     1      87.271   1.135  11.146  1.00  0.00     0.171 HD
ATOM     11  O   UNL     1      85.210  -0.206  13.196  1.00  0.00    -0.248 OA
ATOM     12  H   UNL     1      85.464   1.110  10.289  1.00  0.00     0.171 HD
BRANCH   8  13
ATOM     13  C   UNL     1      88.090   0.541  12.929  1.00  0.00     0.043 A 
ATOM     14  Cl  UNL     1      91.505  -0.006  15.832  1.00  0.00    -0.084 Cl
ATOM     15  C   UNL     1      90.203   0.228  14.722  1.00  0.00     0.053 A 
ATOM     16  C   UNL     1      89.809   1.505  14.326  1.00  0.00     0.076 A 
ATOM     17  C   UNL     1      89.541  -0.894  14.223  1.00  0.00     0.023 A 
ATOM     18  C   UNL     1      88.752   1.662  13.429  1.00  0.00     0.040 A 
ATOM     19  C   UNL     1      88.484  -0.737  13.325  1.00  0.00     0.028 A 
BRANCH  16  20
ATOM     20  C   UNL     1      90.492   2.731  14.841  1.00  0.00     0.417 C 
ATOM     21  F   UNL     1      90.387   2.886  16.193  1.00  0.00    -0.166 F 
ATOM     22  F   UNL     1      91.831   2.757  14.580  1.00  0.00    -0.166 F 
ATOM     23  F   UNL     1      89.987   3.876  14.298  1.00  0.00    -0.166 F 
ENDBRANCH  16  20
ENDBRANCH   8  13
ENDBRANCH   1   7
BRANCH   2  24
ATOM     24  O   UNL     1      79.537  -0.097  10.078  1.00  0.00    -0.457 OA
BRANCH  24  25
ATOM     25  C   UNL     1      78.797   0.997   9.664  1.00  0.00     0.131 A 
ATOM     26  C   UNL     1      79.231   1.735   8.584  1.00  0.00     0.081 A 
ATOM     27  C   UNL     1      77.642   1.324  10.342  1.00  0.00     0.067 A 
ATOM     28  C   UNL     1      78.454   2.819   8.208  1.00  0.00     0.131 A 
ATOM     29  C   UNL     1      76.937   2.427   9.888  1.00  0.00     0.116 A 
ATOM     30  N   UNL     1      77.315   3.186   8.835  1.00  0.00    -0.251 NA
BRANCH  28  31
ATOM     31  C   UNL     1      78.847   3.645   7.079  1.00  0.00     0.269 C 
ATOM     32  O   UNL     1      78.466   4.828   6.997  1.00  0.00    -0.268 OA
ATOM     33  N   UNL     1      79.679   3.057   6.119  1.00  0.00    -0.354 N 
ATOM     34  C   UNL     1      80.173   3.755   4.953  1.00  0.00     0.143 C 
ATOM     35  H   UNL     1      79.983   2.097   6.258  1.00  0.00     0.163 HD
ENDBRANCH  28  31
ENDBRANCH  24  25
ENDBRANCH   2  24
TORSDOF 6
ENDMDL
MODEL 10
REMARK VINA RESULT:    -7.204      6.444     10.473
REMARK INTER + INTRA:         -10.741
REMARK INTER:                  -9.751
REMARK INTRA:                  -0.990
REMARK UNBOUND:                -1.010
REMARK SMILES CNC(=O)c1cc(Oc2ccc(NC(=O)Nc3ccc(Cl)c(C(F)(F)F)c3)cc2)ccn1
REMARK SMILES IDX 12 1 9 2 11 3 28 4 10 5 29 6 13 7 16 8 14 9 15 11 17 13
REMARK SMILES IDX 21 14 20 15 22 16 19 17 27 18 18 19 23 20 24 21 25 22 26 23
REMARK SMILES IDX 8 24 7 25 6 26 30 27 5 28 31 29 32 30 3 31 4 32 2 33 1 34
REMARK H PARENT 16 10 13 12 2 35
REMARK Flexibility Score: inf
ROOT
ATOM      1  C   UNL     1      85.301   2.832  10.155  1.00  0.00     0.043 A 
ATOM      2  C   UNL     1      85.545   0.104  10.571  1.00  0.00     0.127 A 
ATOM      3  C   UNL     1      84.248   2.137  10.728  1.00  0.00     0.030 A 
ATOM      4  C   UNL     1      86.472   2.192   9.785  1.00  0.00     0.030 A 
ATOM      5  C   UNL     1      84.372   0.763  10.938  1.00  0.00     0.049 A 
ATOM      6  C   UNL     1      86.595   0.818   9.995  1.00  0.00     0.049 A 
ENDROOT
BRANCH   1   7
ATOM      7  N   UNL     1      85.176   4.225   9.943  1.00  0.00    -0.308 N 
ATOM      8  N   UNL     1      85.039   6.507  10.268  1.00  0.00    -0.308 N 
ATOM      9  C   UNL     1      85.195   5.251  10.901  1.00  0.00     0.323 C 
ATOM     10  H   UNL     1      84.939   6.486   9.257  1.00  0.00     0.171 HD
ATOM     11  O   UNL     1      85.328   5.089  12.111  1.00  0.00    -0.248 OA
ATOM     12  H   UNL     1      85.058   4.510   8.974  1.00  0.00     0.171 HD
BRANCH   8  13
ATOM     13  C   UNL     1      85.002   7.776  10.848  1.00  0.00     0.043 A 
ATOM     14  Cl  UNL     1      84.923  11.886  12.716  1.00  0.00    -0.084 Cl
ATOM     15  C   UNL     1      84.929  10.312  12.008  1.00  0.00     0.053 A 
ATOM     16  C   UNL     1      83.813   9.481  12.079  1.00  0.00     0.076 A 
ATOM     17  C   UNL     1      86.084   9.876  11.358  1.00  0.00     0.023 A 
ATOM     18  C   UNL     1      83.848   8.212  11.499  1.00  0.00     0.040 A 
ATOM     19  C   UNL     1      86.120   8.607  10.777  1.00  0.00     0.028 A 
BRANCH  16  20
ATOM     20  C   UNL     1      82.558   9.911  12.770  1.00  0.00     0.417 C 
ATOM     21  F   UNL     1      81.602   8.937  12.818  1.00  0.00    -0.166 F 
ATOM     22  F   UNL     1      82.753  10.287  14.066  1.00  0.00    -0.166 F 
ATOM     23  F   UNL     1      81.967  10.978  12.160  1.00  0.00    -0.166 F 
ENDBRANCH  16  20
ENDBRANCH   8  13
ENDBRANCH   1   7
BRANCH   2  24
ATOM     24  O   UNL     1      85.665  -1.237  10.774  1.00  0.00    -0.457 OA
BRANCH  24  25
ATOM     25  C   UNL     1      86.722  -1.678  11.552  1.00  0.00     0.131 A 
ATOM     26  C   UNL     1      87.625  -2.571  11.017  1.00  0.00     0.081 A 
ATOM     27  C   UNL     1      86.847  -1.213  12.843  1.00  0.00     0.067 A 
ATOM     28  C   UNL     1      88.666  -2.980  11.836  1.00  0.00     0.131 A 
ATOM     29  C   UNL     1      87.923  -1.683  13.580  1.00  0.00     0.116 A 
ATOM     30  N   UNL     1      88.839  -2.558  13.108  1.00  0.00    -0.251 NA
BRANCH  28  31
ATOM     31  C   UNL     1      89.659  -3.920  11.344  1.00  0.00     0.269 C 
ATOM     32  O   UNL     1      90.825  -3.894  11.779  1.00  0.00    -0.268 OA
ATOM     33  N   UNL     1      89.234  -4.855  10.391  1.00  0.00    -0.354 N 
ATOM     34  C   UNL     1      90.095  -5.868   9.825  1.00  0.00     0.143 C 
ATOM     35  H   UNL     1      88.260  -4.847  10.100  1.00  0.00     0.163 HD
ENDBRANCH  28  31
ENDBRANCH  24  25
ENDBRANCH   2  24
TORSDOF 6
ENDMDL
MODEL 11
REMARK VINA RESULT:    -7.148      6.946     10.737
REMARK INTER + INTRA:         -10.665
REMARK INTER:                  -9.874
REMARK INTRA:                  -0.791
REMARK UNBOUND:                -1.010
REMARK SMILES CNC(=O)c1cc(Oc2ccc(NC(=O)Nc3ccc(Cl)c(C(F)(F)F)c3)cc2)ccn1
REMARK SMILES IDX 12 1 9 2 11 3 28 4 10 5 29 6 13 7 16 8 14 9 15 11 17 13
REMARK SMILES IDX 21 14 20 15 22 16 19 17 27 18 18 19 23 20 24 21 25 22 26 23
REMARK SMILES IDX 8 24 7 25 6 26 30 27 5 28 31 29 32 30 3 31 4 32 2 33 1 34
REMARK H PARENT 16 10 13 12 2 35
REMARK Flexibility Score: inf
ROOT
ATOM      1  C   UNL     1      86.062   3.048  12.124  1.00  0.00     0.043 A 
ATOM      2  C   UNL     1      86.449   0.684  13.514  1.00  0.00     0.127 A 
ATOM      3  C   UNL     1      87.129   2.945  13.002  1.00  0.00     0.030 A 
ATOM      4  C   UNL     1      85.184   1.995  11.928  1.00  0.00     0.030 A 
ATOM      5  C   UNL     1      87.324   1.754  13.701  1.00  0.00     0.049 A 
ATOM      6  C   UNL     1      85.379   0.804  12.628  1.00  0.00     0.049 A 
ENDROOT
BRANCH   1   7
ATOM      7  N   UNL     1      85.865   4.256  11.414  1.00  0.00    -0.308 N 
ATOM      8  N   UNL     1      85.386   6.450  10.874  1.00  0.00    -0.308 N 
ATOM      9  C   UNL     1      85.463   5.501  11.922  1.00  0.00     0.323 C 
ATOM     10  H   UNL     1      85.622   6.107   9.947  1.00  0.00     0.171 HD
ATOM     11  O   UNL     1      85.213   5.740  13.100  1.00  0.00    -0.248 OA
ATOM     12  H   UNL     1      86.038   4.207  10.413  1.00  0.00     0.171 HD
BRANCH   8  13
ATOM     13  C   UNL     1      85.028   7.797  10.942  1.00  0.00     0.043 A 
ATOM     14  Cl  UNL     1      83.905  12.165  11.147  1.00  0.00    -0.084 Cl
ATOM     15  C   UNL     1      84.313  10.490  11.080  1.00  0.00     0.053 A 
ATOM     16  C   UNL     1      83.500   9.522  11.667  1.00  0.00     0.076 A 
ATOM     17  C   UNL     1      85.485  10.112  10.424  1.00  0.00     0.023 A 
ATOM     18  C   UNL     1      83.857   8.174  11.599  1.00  0.00     0.040 A 
ATOM     19  C   UNL     1      85.843   8.765  10.355  1.00  0.00     0.028 A 
BRANCH  16  20
ATOM     20  C   UNL     1      82.237   9.886  12.381  1.00  0.00     0.417 C 
ATOM     21  F   UNL     1      81.356  10.584  11.606  1.00  0.00    -0.166 F 
ATOM     22  F   UNL     1      81.539   8.806  12.835  1.00  0.00    -0.166 F 
ATOM     23  F   UNL     1      82.464  10.667  13.476  1.00  0.00    -0.166 F 
ENDBRANCH  16  20
ENDBRANCH   8  13
ENDBRANCH   1   7
BRANCH   2  24
ATOM     24  O   UNL     1      86.638  -0.478  14.199  1.00  0.00    -0.457 OA
BRANCH  24  25
ATOM     25  C   UNL     1      87.638  -1.328  13.759  1.00  0.00     0.131 A 
ATOM     26  C   UNL     1      87.560  -1.861  12.490  1.00  0.00     0.081 A 
ATOM     27  C   UNL     1      88.690  -1.623  14.600  1.00  0.00     0.067 A 
ATOM     28  C   UNL     1      88.587  -2.705  12.097  1.00  0.00     0.131 A 
ATOM     29  C   UNL     1      89.666  -2.477  14.113  1.00  0.00     0.116 A 
ATOM     30  N   UNL     1      89.640  -3.029  12.878  1.00  0.00    -0.251 NA
BRANCH  28  31
ATOM     31  C   UNL     1      88.575  -3.305  10.774  1.00  0.00     0.269 C 
ATOM     32  O   UNL     1      88.189  -2.653   9.786  1.00  0.00    -0.268 OA
ATOM     33  N   UNL     1      89.036  -4.623  10.669  1.00  0.00    -0.354 N 
ATOM     34  C   UNL     1      89.108  -5.348   9.420  1.00  0.00     0.143 C 
ATOM     35  H   UNL     1      89.369  -5.092  11.506  1.00  0.00     0.163 HD
ENDBRANCH  28  31
ENDBRANCH  24  25
ENDBRANCH   2  24
TORSDOF 6
ENDMDL
MODEL 12
REMARK VINA RESULT:    -7.138      3.133      4.564
REMARK INTER + INTRA:         -10.652
REMARK INTER:                 -10.326
REMARK INTRA:                  -0.326
REMARK UNBOUND:                -1.010
REMARK SMILES CNC(=O)c1cc(Oc2ccc(NC(=O)Nc3ccc(Cl)c(C(F)(F)F)c3)cc2)ccn1
REMARK SMILES IDX 12 1 9 2 11 3 28 4 10 5 29 6 13 7 16 8 14 9 15 11 17 13
REMARK SMILES IDX 21 14 20 15 22 16 19 17 27 18 18 19 23 20 24 21 25 22 26 23
REMARK SMILES IDX 8 24 7 25 6 26 30 27 5 28 31 29 32 30 3 31 4 32 2 33 1 34
REMARK H PARENT 16 10 13 12 2 35
REMARK Flexibility Score: inf
ROOT
ATOM      1  C   UNL     1      82.946   1.606  10.878  1.00  0.00     0.043 A 
ATOM      2  C   UNL     1      80.965   1.323   8.963  1.00  0.00     0.127 A 
ATOM      3  C   UNL     1      83.254   1.833   9.547  1.00  0.00     0.030 A 
ATOM      4  C   UNL     1      81.670   1.240  11.272  1.00  0.00     0.030 A 
ATOM      5  C   UNL     1      82.256   1.691   8.582  1.00  0.00     0.049 A 
ATOM      6  C   UNL     1      80.672   1.098  10.307  1.00  0.00     0.049 A 
ENDROOT
BRANCH   1   7
ATOM      7  N   UNL     1      83.958   1.751  11.857  1.00  0.00    -0.308 N 
ATOM      8  N   UNL     1      85.868   1.457  13.122  1.00  0.00    -0.308 N 
ATOM      9  C   UNL     1      85.120   0.980  12.019  1.00  0.00     0.323 C 
ATOM     10  H   UNL     1      85.473   2.253  13.615  1.00  0.00     0.171 HD
ATOM     11  O   UNL     1      85.446   0.030  11.312  1.00  0.00    -0.248 OA
ATOM     12  H   UNL     1      83.819   2.509  12.519  1.00  0.00     0.171 HD
BRANCH   8  13
ATOM     13  C   UNL     1      87.079   0.980  13.625  1.00  0.00     0.043 A 
ATOM     14  Cl  UNL     1      91.010  -0.526  15.257  1.00  0.00    -0.084 Cl
ATOM     15  C   UNL     1      89.499   0.026  14.632  1.00  0.00     0.053 A 
ATOM     16  C   UNL     1      88.511  -0.870  14.227  1.00  0.00     0.076 A 
ATOM     17  C   UNL     1      89.278   1.400  14.532  1.00  0.00     0.023 A 
ATOM     18  C   UNL     1      87.300  -0.394  13.724  1.00  0.00     0.040 A 
ATOM     19  C   UNL     1      88.067   1.877  14.029  1.00  0.00     0.028 A 
BRANCH  16  20
ATOM     20  C   UNL     1      88.710  -2.350  14.316  1.00  0.00     0.417 C 
ATOM     21  F   UNL     1      89.964  -2.752  13.956  1.00  0.00    -0.166 F 
ATOM     22  F   UNL     1      88.519  -2.849  15.571  1.00  0.00    -0.166 F 
ATOM     23  F   UNL     1      87.856  -3.040  13.508  1.00  0.00    -0.166 F 
ENDBRANCH  16  20
ENDBRANCH   8  13
ENDBRANCH   1   7
BRANCH   2  24
ATOM     24  O   UNL     1      79.993   1.183   8.021  1.00  0.00    -0.457 OA
BRANCH  24  25
ATOM     25  C   UNL     1      79.166   0.075   8.111  1.00  0.00     0.131 A 
ATOM     26  C   UNL     1      79.721  -1.162   8.357  1.00  0.00     0.081 A 
ATOM     27  C   UNL     1      77.806   0.236   7.952  1.00  0.00     0.067 A 
ATOM     28  C   UNL     1      78.851  -2.238   8.439  1.00  0.00     0.131 A 
ATOM     29  C   UNL     1      77.022  -0.902   8.053  1.00  0.00     0.116 A 
ATOM     30  N   UNL     1      77.511  -2.140   8.292  1.00  0.00    -0.251 NA
BRANCH  28  31
ATOM     31  C   UNL     1      79.360  -3.574   8.696  1.00  0.00     0.269 C 
ATOM     32  O   UNL     1      79.092  -4.159   9.761  1.00  0.00    -0.268 OA
ATOM     33  N   UNL     1      80.133  -4.165   7.689  1.00  0.00    -0.354 N 
ATOM     34  C   UNL     1      80.690  -5.496   7.785  1.00  0.00     0.143 C 
ATOM     35  H   UNL     1      80.290  -3.649   6.828  1.00  0.00     0.163 HD
ENDBRANCH  28  31
ENDBRANCH  24  25
ENDBRANCH   2  24
TORSDOF 6
ENDMDL
MODEL 13
REMARK VINA RESULT:    -7.125      5.657     11.887
REMARK INTER + INTRA:         -10.634
REMARK INTER:                  -9.661
REMARK INTRA:                  -0.973
REMARK UNBOUND:                -1.010
REMARK SMILES CNC(=O)c1cc(Oc2ccc(NC(=O)Nc3ccc(Cl)c(C(F)(F)F)c3)cc2)ccn1
REMARK SMILES IDX 12 1 9 2 11 3 28 4 10 5 29 6 13 7 16 8 14 9 15 11 17 13
REMARK SMILES IDX 21 14 20 15 22 16 19 17 27 18 18 19 23 20 24 21 25 22 26 23
REMARK SMILES IDX 8 24 7 25 6 26 30 27 5 28 31 29 32 30 3 31 4 32 2 33 1 34
REMARK H PARENT 16 10 13 12 2 35
REMARK Flexibility Score: inf
ROOT
ATOM      1  C   UNL     1      85.802  -0.184  11.733  1.00  0.00     0.043 A 
ATOM      2  C   UNL     1      87.497  -1.799  13.214  1.00  0.00     0.127 A 
ATOM      3  C   UNL     1      85.732  -0.152  13.117  1.00  0.00     0.030 A 
ATOM      4  C   UNL     1      86.701  -1.007  11.075  1.00  0.00     0.030 A 
ATOM      5  C   UNL     1      86.586  -0.965  13.862  1.00  0.00     0.049 A 
ATOM      6  C   UNL     1      87.555  -1.820  11.821  1.00  0.00     0.049 A 
ENDROOT
BRANCH   1   7
ATOM      7  N   UNL     1      84.937   0.641  10.978  1.00  0.00    -0.308 N 
ATOM      8  N   UNL     1      83.157   1.420   9.729  1.00  0.00    -0.308 N 
ATOM      9  C   UNL     1      83.701   0.301  10.404  1.00  0.00     0.323 C 
ATOM     10  H   UNL     1      83.714   2.270   9.756  1.00  0.00     0.171 HD
ATOM     11  O   UNL     1      83.167  -0.802  10.473  1.00  0.00    -0.248 OA
ATOM     12  H   UNL     1      85.255   1.596  10.838  1.00  0.00     0.171 HD
BRANCH   8  13
ATOM     13  C   UNL     1      81.953   1.514   9.028  1.00  0.00     0.043 A 
ATOM     14  Cl  UNL     1      78.082   1.828   6.726  1.00  0.00    -0.084 Cl
ATOM     15  C   UNL     1      79.549   1.703   7.627  1.00  0.00     0.053 A 
ATOM     16  C   UNL     1      79.538   1.468   9.001  1.00  0.00     0.076 A 
ATOM     17  C   UNL     1      80.762   1.844   6.952  1.00  0.00     0.023 A 
ATOM     18  C   UNL     1      80.741   1.373   9.702  1.00  0.00     0.040 A 
ATOM     19  C   UNL     1      81.965   1.750   7.653  1.00  0.00     0.028 A 
BRANCH  16  20
ATOM     20  C   UNL     1      78.259   1.312   9.760  1.00  0.00     0.417 C 
ATOM     21  F   UNL     1      77.474   0.295   9.300  1.00  0.00    -0.166 F 
ATOM     22  F   UNL     1      78.443   1.052  11.086  1.00  0.00    -0.166 F 
ATOM     23  F   UNL     1      77.482   2.432   9.706  1.00  0.00    -0.166 F 
ENDBRANCH  16  20
ENDBRANCH   8  13
ENDBRANCH   1   7
BRANCH   2  24
ATOM     24  O   UNL     1      88.329  -2.594  13.941  1.00  0.00    -0.457 OA
BRANCH  24  25
ATOM     25  C   UNL     1      89.661  -2.226  14.025  1.00  0.00     0.131 A 
ATOM     26  C   UNL     1      89.994  -1.032  14.628  1.00  0.00     0.081 A 
ATOM     27  C   UNL     1      90.625  -3.062  13.503  1.00  0.00     0.067 A 
ATOM     28  C   UNL     1      91.341  -0.711  14.688  1.00  0.00     0.131 A 
ATOM     29  C   UNL     1      91.943  -2.650  13.613  1.00  0.00     0.116 A 
ATOM     30  N   UNL     1      92.327  -1.490  14.193  1.00  0.00    -0.251 NA
BRANCH  28  31
ATOM     31  C   UNL     1      91.770   0.531  15.309  1.00  0.00     0.269 C 
ATOM     32  O   UNL     1      91.717   1.604  14.680  1.00  0.00    -0.268 OA
ATOM     33  N   UNL     1      92.215   0.459  16.634  1.00  0.00    -0.354 N 
ATOM     34  C   UNL     1      92.652   1.608  17.395  1.00  0.00     0.143 C 
ATOM     35  H   UNL     1      92.204  -0.441  17.105  1.00  0.00     0.163 HD
ENDBRANCH  28  31
ENDBRANCH  24  25
ENDBRANCH   2  24
TORSDOF 6
ENDMDL
MODEL 14
REMARK VINA RESULT:    -7.114      2.480      3.790
REMARK INTER + INTRA:         -10.619
REMARK INTER:                  -9.813
REMARK INTRA:                  -0.806
REMARK UNBOUND:                -1.010
REMARK SMILES CNC(=O)c1cc(Oc2ccc(NC(=O)Nc3ccc(Cl)c(C(F)(F)F)c3)cc2)ccn1
REMARK SMILES IDX 12 1 9 2 11 3 28 4 10 5 29 6 13 7 16 8 14 9 15 11 17 13
REMARK SMILES IDX 21 14 20 15 22 16 19 17 27 18 18 19 23 20 24 21 25 22 26 23
REMARK SMILES IDX 8 24 7 25 6 26 30 27 5 28 31 29 32 30 3 31 4 32 2 33 1 34
REMARK H PARENT 16 10 13 12 2 35
REMARK Flexibility Score: inf
ROOT
ATOM      1  C   UNL     1      83.023   0.036  11.232  1.00  0.00     0.043 A 
ATOM      2  C   UNL     1      81.277   0.390   9.110  1.00  0.00     0.127 A 
ATOM      3  C   UNL     1      82.013   0.979  11.335  1.00  0.00     0.030 A 
ATOM      4  C   UNL     1      83.179  -0.732  10.089  1.00  0.00     0.030 A 
ATOM      5  C   UNL     1      81.133   1.156  10.267  1.00  0.00     0.049 A 
ATOM      6  C   UNL     1      82.299  -0.554   9.022  1.00  0.00     0.049 A 
ENDROOT
BRANCH   1   7
ATOM      7  N   UNL     1      83.914  -0.145  12.315  1.00  0.00    -0.308 N 
ATOM      8  N   UNL     1      85.822  -0.265  13.611  1.00  0.00    -0.308 N 
ATOM      9  C   UNL     1      85.310   0.012  12.321  1.00  0.00     0.323 C 
ATOM     10  H   UNL     1      85.136  -0.526  14.315  1.00  0.00     0.171 HD
ATOM     11  O   UNL     1      85.991   0.341  11.355  1.00  0.00    -0.248 OA
ATOM     12  H   UNL     1      83.484  -0.421  13.193  1.00  0.00     0.171 HD
BRANCH   8  13
ATOM     13  C   UNL     1      87.147  -0.229  14.049  1.00  0.00     0.043 A 
ATOM     14  Cl  UNL     1      91.431  -0.153  15.471  1.00  0.00    -0.084 Cl
ATOM     15  C   UNL     1      89.794  -0.157  14.925  1.00  0.00     0.053 A 
ATOM     16  C   UNL     1      89.119   1.031  14.648  1.00  0.00     0.076 A 
ATOM     17  C   UNL     1      89.145  -1.382  14.765  1.00  0.00     0.023 A 
ATOM     18  C   UNL     1      87.795   0.996  14.209  1.00  0.00     0.040 A 
ATOM     19  C   UNL     1      87.821  -1.418  14.327  1.00  0.00     0.028 A 
BRANCH  16  20
ATOM     20  C   UNL     1      89.779   2.363  14.808  1.00  0.00     0.417 C 
ATOM     21  F   UNL     1      90.809   2.569  13.936  1.00  0.00    -0.166 F 
ATOM     22  F   UNL     1      88.932   3.415  14.618  1.00  0.00    -0.166 F 
ATOM     23  F   UNL     1      90.309   2.536  16.052  1.00  0.00    -0.166 F 
ENDBRANCH  16  20
ENDBRANCH   8  13
ENDBRANCH   1   7
BRANCH   2  24
ATOM     24  O   UNL     1      80.420   0.565   8.067  1.00  0.00    -0.457 OA
BRANCH  24  25
ATOM     25  C   UNL     1      79.221  -0.128   8.096  1.00  0.00     0.131 A 
ATOM     26  C   UNL     1      79.240  -1.506   8.108  1.00  0.00     0.081 A 
ATOM     27  C   UNL     1      78.037   0.576   8.112  1.00  0.00     0.067 A 
ATOM     28  C   UNL     1      78.014  -2.153   8.138  1.00  0.00     0.131 A 
ATOM     29  C   UNL     1      76.865  -0.163   8.143  1.00  0.00     0.116 A 
ATOM     30  N   UNL     1      76.823  -1.515   8.155  1.00  0.00    -0.251 NA
BRANCH  28  31
ATOM     31  C   UNL     1      77.952  -3.604   8.152  1.00  0.00     0.269 C 
ATOM     32  O   UNL     1      76.993  -4.201   7.628  1.00  0.00    -0.268 OA
ATOM     33  N   UNL     1      79.020  -4.282   8.753  1.00  0.00    -0.354 N 
ATOM     34  C   UNL     1      79.114  -5.722   8.825  1.00  0.00     0.143 C 
ATOM     35  H   UNL     1      79.790  -3.739   9.135  1.00  0.00     0.163 HD
ENDBRANCH  28  31
ENDBRANCH  24  25
ENDBRANCH   2  24
TORSDOF 6
ENDMDL
MODEL 15
REMARK VINA RESULT:    -7.085      5.789     12.276
REMARK INTER + INTRA:         -10.581
REMARK INTER:                  -9.644
REMARK INTRA:                  -0.937
REMARK UNBOUND:                -1.010
REMARK SMILES CNC(=O)c1cc(Oc2ccc(NC(=O)Nc3ccc(Cl)c(C(F)(F)F)c3)cc2)ccn1
REMARK SMILES IDX 12 1 9 2 11 3 28 4 10 5 29 6 13 7 16 8 14 9 15 11 17 13
REMARK SMILES IDX 21 14 20 15 22 16 19 17 27 18 18 19 23 20 24 21 25 22 26 23
REMARK SMILES IDX 8 24 7 25 6 26 30 27 5 28 31 29 32 30 3 31 4 32 2 33 1 34
REMARK H PARENT 16 10 13 12 2 35
REMARK Flexibility Score: inf
ROOT
ATOM      1  C   UNL     1      85.763  -0.232  11.744  1.00  0.00     0.043 A 
ATOM      2  C   UNL     1      87.496  -1.845  13.183  1.00  0.00     0.127 A 
ATOM      3  C   UNL     1      85.743  -0.182  13.129  1.00  0.00     0.030 A 
ATOM      4  C   UNL     1      86.630  -1.072  11.064  1.00  0.00     0.030 A 
ATOM      5  C   UNL     1      86.617  -0.994  13.853  1.00  0.00     0.049 A 
ATOM      6  C   UNL     1      87.503  -1.884  11.790  1.00  0.00     0.049 A 
ENDROOT
BRANCH   1   7
ATOM      7  N   UNL     1      84.878   0.591  11.009  1.00  0.00    -0.308 N 
ATOM      8  N   UNL     1      83.088   1.356   9.766  1.00  0.00    -0.308 N 
ATOM      9  C   UNL     1      83.664   0.230  10.403  1.00  0.00     0.323 C 
ATOM     10  H   UNL     1      83.613   2.223   9.836  1.00  0.00     0.171 HD
ATOM     11  O   UNL     1      83.170  -0.893  10.418  1.00  0.00    -0.248 OA
ATOM     12  H   UNL     1      85.164   1.562  10.914  1.00  0.00     0.171 HD
BRANCH   8  13
ATOM     13  C   UNL     1      81.892   1.435   9.051  1.00  0.00     0.043 A 
ATOM     14  Cl  UNL     1      78.045   1.699   6.703  1.00  0.00    -0.084 Cl
ATOM     15  C   UNL     1      79.502   1.594   7.621  1.00  0.00     0.053 A 
ATOM     16  C   UNL     1      79.477   1.426   9.005  1.00  0.00     0.076 A 
ATOM     17  C   UNL     1      80.723   1.682   6.952  1.00  0.00     0.023 A 
ATOM     18  C   UNL     1      80.672   1.347   9.721  1.00  0.00     0.040 A 
ATOM     19  C   UNL     1      81.918   1.603   7.666  1.00  0.00     0.028 A 
BRANCH  16  20
ATOM     20  C   UNL     1      78.190   1.329   9.760  1.00  0.00     0.417 C 
ATOM     21  F   UNL     1      77.382   0.316   9.330  1.00  0.00    -0.166 F 
ATOM     22  F   UNL     1      78.358   1.112  11.096  1.00  0.00    -0.166 F 
ATOM     23  F   UNL     1      77.441   2.464   9.661  1.00  0.00    -0.166 F 
ENDBRANCH  16  20
ENDBRANCH   8  13
ENDBRANCH   1   7
BRANCH   2  24
ATOM     24  O   UNL     1      88.346  -2.638  13.890  1.00  0.00    -0.457 OA
BRANCH  24  25
ATOM     25  C   UNL     1      89.659  -2.219  14.021  1.00  0.00     0.131 A 
ATOM     26  C   UNL     1      90.672  -3.007  13.520  1.00  0.00     0.081 A 
ATOM     27  C   UNL     1      89.923  -1.020  14.649  1.00  0.00     0.067 A 
ATOM     28  C   UNL     1      91.968  -2.542  13.675  1.00  0.00     0.131 A 
ATOM     29  C   UNL     1      91.253  -0.644  14.753  1.00  0.00     0.116 A 
ATOM     30  N   UNL     1      92.286  -1.377  14.281  1.00  0.00    -0.251 NA
BRANCH  28  31
ATOM     31  C   UNL     1      93.090  -3.317  13.173  1.00  0.00     0.269 C 
ATOM     32  O   UNL     1      93.000  -3.937  12.097  1.00  0.00    -0.268 OA
ATOM     33  N   UNL     1      94.262  -3.310  13.938  1.00  0.00    -0.354 N 
ATOM     34  C   UNL     1      95.469  -4.011  13.561  1.00  0.00     0.143 C 
ATOM     35  H   UNL     1      94.285  -2.758  14.791  1.00  0.00     0.163 HD
ENDBRANCH  28  31
ENDBRANCH  24  25
ENDBRANCH   2  24
TORSDOF 6
ENDMDL
MODEL 16
REMARK VINA RESULT:    -7.052      2.751      3.909
REMARK INTER + INTRA:         -10.535
REMARK INTER:                  -9.530
REMARK INTRA:                  -1.005
REMARK UNBOUND:                -1.010
REMARK SMILES CNC(=O)c1cc(Oc2ccc(NC(=O)Nc3ccc(Cl)c(C(F)(F)F)c3)cc2)ccn1
REMARK SMILES IDX 12 1 9 2 11 3 28 4 10 5 29 6 13 7 16 8 14 9 15 11 17 13
REMARK SMILES IDX 21 14 20 15 22 16 19 17 27 18 18 19 23 20 24 21 25 22 26 23
REMARK SMILES IDX 8 24 7 25 6 26 30 27 5 28 31 29 32 30 3 31 4 32 2 33 1 34
REMARK H PARENT 16 10 13 12 2 35
REMARK Flexibility Score: inf
ROOT
ATOM      1  C   UNL     1      83.277   0.039  10.672  1.00  0.00     0.043 A 
ATOM      2  C   UNL     1      81.316   1.257   9.141  1.00  0.00     0.127 A 
ATOM      3  C   UNL     1      83.381   0.011   9.291  1.00  0.00     0.030 A 
ATOM      4  C   UNL     1      82.213   0.661  11.304  1.00  0.00     0.030 A 
ATOM      5  C   UNL     1      82.394   0.626   8.520  1.00  0.00     0.049 A 
ATOM      6  C   UNL     1      81.226   1.276  10.532  1.00  0.00     0.049 A 
ENDROOT
BRANCH   1   7
ATOM      7  N   UNL     1      84.278  -0.584  11.454  1.00  0.00    -0.308 N 
ATOM      8  N   UNL     1      86.239  -1.025  12.591  1.00  0.00    -0.308 N 
ATOM      9  C   UNL     1      85.547  -0.085  11.791  1.00  0.00     0.323 C 
ATOM     10  H   UNL     1      85.741  -1.887  12.797  1.00  0.00     0.171 HD
ATOM     11  O   UNL     1      85.996   1.004  11.445  1.00  0.00    -0.248 OA
ATOM     12  H   UNL     1      84.041  -1.505  11.813  1.00  0.00     0.171 HD
BRANCH   8  13
ATOM     13  C   UNL     1      87.520  -0.929  13.137  1.00  0.00     0.043 A 
ATOM     14  Cl  UNL     1      91.653  -0.581  14.921  1.00  0.00    -0.084 Cl
ATOM     15  C   UNL     1      90.081  -0.734  14.227  1.00  0.00     0.053 A 
ATOM     16  C   UNL     1      89.795  -1.727  13.291  1.00  0.00     0.076 A 
ATOM     17  C   UNL     1      89.086   0.163  14.618  1.00  0.00     0.023 A 
ATOM     18  C   UNL     1      88.514  -1.825  12.745  1.00  0.00     0.040 A 
ATOM     19  C   UNL     1      87.806   0.066  14.072  1.00  0.00     0.028 A 
BRANCH  16  20
ATOM     20  C   UNL     1      90.833  -2.706  12.845  1.00  0.00     0.417 C 
ATOM     21  F   UNL     1      91.953  -2.116  12.333  1.00  0.00    -0.166 F 
ATOM     22  F   UNL     1      91.281  -3.517  13.846  1.00  0.00    -0.166 F 
ATOM     23  F   UNL     1      90.377  -3.542  11.869  1.00  0.00    -0.166 F 
ENDBRANCH  16  20
ENDBRANCH   8  13
ENDBRANCH   1   7
BRANCH   2  24
ATOM     24  O   UNL     1      80.352   1.855   8.388  1.00  0.00    -0.457 OA
BRANCH  24  25
ATOM     25  C   UNL     1      79.062   1.360   8.484  1.00  0.00     0.131 A 
ATOM     26  C   UNL     1      78.820   0.043   8.158  1.00  0.00     0.081 A 
ATOM     27  C   UNL     1      78.050   2.196   8.905  1.00  0.00     0.067 A 
ATOM     28  C   UNL     1      77.513  -0.404   8.272  1.00  0.00     0.131 A 
ATOM     29  C   UNL     1      76.778   1.652   8.985  1.00  0.00     0.116 A 
ATOM     30  N   UNL     1      76.482   0.369   8.678  1.00  0.00    -0.251 NA
BRANCH  28  31
ATOM     31  C   UNL     1      77.178  -1.780   7.946  1.00  0.00     0.269 C 
ATOM     32  O   UNL     1      76.125  -2.048   7.340  1.00  0.00    -0.268 OA
ATOM     33  N   UNL     1      78.099  -2.765   8.322  1.00  0.00    -0.354 N 
ATOM     34  C   UNL     1      77.921  -4.173   8.048  1.00  0.00     0.143 C 
ATOM     35  H   UNL     1      78.958  -2.480   8.785  1.00  0.00     0.163 HD
ENDBRANCH  28  31
ENDBRANCH  24  25
ENDBRANCH   2  24
TORSDOF 6
ENDMDL
MODEL 17
REMARK VINA RESULT:    -7.048      2.226      3.589
REMARK INTER + INTRA:         -10.531
REMARK INTER:                  -9.688
REMARK INTRA:                  -0.843
REMARK UNBOUND:                -1.010
REMARK SMILES CNC(=O)c1cc(Oc2ccc(NC(=O)Nc3ccc(Cl)c(C(F)(F)F)c3)cc2)ccn1
REMARK SMILES IDX 12 1 9 2 11 3 28 4 10 5 29 6 13 7 16 8 14 9 15 11 17 13
REMARK SMILES IDX 21 14 20 15 22 16 19 17 27 18 18 19 23 20 24 21 25 22 26 23
REMARK SMILES IDX 8 24 7 25 6 26 30 27 5 28 31 29 32 30 3 31 4 32 2 33 1 34
REMARK H PARENT 16 10 13 12 2 35
REMARK Flexibility Score: inf
ROOT
ATOM      1  C   UNL     1      83.836  -0.029  11.131  1.00  0.00     0.043 A 
ATOM      2  C   UNL     1      81.992   1.084   9.389  1.00  0.00     0.127 A 
ATOM      3  C   UNL     1      83.915  -0.326   9.780  1.00  0.00     0.030 A 
ATOM      4  C   UNL     1      82.854   0.811  11.629  1.00  0.00     0.030 A 
ATOM      5  C   UNL     1      82.986   0.235   8.903  1.00  0.00     0.049 A 
ATOM      6  C   UNL     1      81.926   1.372  10.752  1.00  0.00     0.049 A 
ENDROOT
BRANCH   1   7
ATOM      7  N   UNL     1      84.778  -0.598  12.020  1.00  0.00    -0.308 N 
ATOM      8  N   UNL     1      86.748  -1.278  13.015  1.00  0.00    -0.308 N 
ATOM      9  C   UNL     1      86.178  -0.602  11.910  1.00  0.00     0.323 C 
ATOM     10  H   UNL     1      86.091  -1.647  13.697  1.00  0.00     0.171 HD
ATOM     11  O   UNL     1      86.819  -0.096  10.993  1.00  0.00    -0.248 OA
ATOM     12  H   UNL     1      84.385  -1.057  12.837  1.00  0.00     0.171 HD
BRANCH   8  13
ATOM     13  C   UNL     1      88.096  -1.509  13.294  1.00  0.00     0.043 A 
ATOM     14  Cl  UNL     1      92.453  -2.294  14.181  1.00  0.00    -0.084 Cl
ATOM     15  C   UNL     1      90.790  -1.971  13.852  1.00  0.00     0.053 A 
ATOM     16  C   UNL     1      90.181  -0.793  14.281  1.00  0.00     0.076 A 
ATOM     17  C   UNL     1      90.051  -2.920  13.144  1.00  0.00     0.023 A 
ATOM     18  C   UNL     1      88.834  -0.561  14.003  1.00  0.00     0.040 A 
ATOM     19  C   UNL     1      88.704  -2.689  12.864  1.00  0.00     0.028 A 
BRANCH  16  20
ATOM     20  C   UNL     1      90.937   0.247  15.045  1.00  0.00     0.417 C 
ATOM     21  F   UNL     1      90.167   1.306  15.430  1.00  0.00    -0.166 F 
ATOM     22  F   UNL     1      91.499  -0.225  16.195  1.00  0.00    -0.166 F 
ATOM     23  F   UNL     1      91.964   0.780  14.323  1.00  0.00    -0.166 F 
ENDBRANCH  16  20
ENDBRANCH   8  13
ENDBRANCH   1   7
BRANCH   2  24
ATOM     24  O   UNL     1      81.084   1.629   8.534  1.00  0.00    -0.457 OA
BRANCH  24  25
ATOM     25  C   UNL     1      79.794   1.128   8.559  1.00  0.00     0.131 A 
ATOM     26  C   UNL     1      79.598  -0.234   8.485  1.00  0.00     0.081 A 
ATOM     27  C   UNL     1      78.734   2.004   8.660  1.00  0.00     0.067 A 
ATOM     28  C   UNL     1      78.288  -0.685   8.516  1.00  0.00     0.131 A 
ATOM     29  C   UNL     1      77.462   1.453   8.683  1.00  0.00     0.116 A 
ATOM     30  N   UNL     1      77.211   0.126   8.613  1.00  0.00    -0.251 NA
BRANCH  28  31
ATOM     31  C   UNL     1      78.001  -2.107   8.442  1.00  0.00     0.269 C 
ATOM     32  O   UNL     1      76.972  -2.517   7.872  1.00  0.00    -0.268 OA
ATOM     33  N   UNL     1      78.937  -2.977   9.014  1.00  0.00    -0.354 N 
ATOM     34  C   UNL     1      78.806  -4.416   9.001  1.00  0.00     0.143 C 
ATOM     35  H   UNL     1      79.774  -2.584   9.437  1.00  0.00     0.163 HD
ENDBRANCH  28  31
ENDBRANCH  24  25
ENDBRANCH   2  24
TORSDOF 6
ENDMDL
MODEL 18
REMARK VINA RESULT:    -7.017      1.726      2.519
REMARK INTER + INTRA:         -10.489
REMARK INTER:                  -9.490
REMARK INTRA:                  -0.999
REMARK UNBOUND:                -1.010
REMARK SMILES CNC(=O)c1cc(Oc2ccc(NC(=O)Nc3ccc(Cl)c(C(F)(F)F)c3)cc2)ccn1
REMARK SMILES IDX 12 1 9 2 11 3 28 4 10 5 29 6 13 7 16 8 14 9 15 11 17 13
REMARK SMILES IDX 21 14 20 15 22 16 19 17 27 18 18 19 23 20 24 21 25 22 26 23
REMARK SMILES IDX 8 24 7 25 6 26 30 27 5 28 31 29 32 30 3 31 4 32 2 33 1 34
REMARK H PARENT 16 10 13 12 2 35
REMARK Flexibility Score: inf
ROOT
ATOM      1  C   UNL     1      84.756   0.569  11.375  1.00  0.00     0.043 A 
ATOM      2  C   UNL     1      82.097   0.063  10.787  1.00  0.00     0.127 A 
ATOM      3  C   UNL     1      84.387  -0.693  10.938  1.00  0.00     0.030 A 
ATOM      4  C   UNL     1      83.824   1.582  11.526  1.00  0.00     0.030 A 
ATOM      5  C   UNL     1      83.048  -0.947  10.641  1.00  0.00     0.049 A 
ATOM      6  C   UNL     1      82.484   1.327  11.229  1.00  0.00     0.049 A 
ENDROOT
BRANCH   1   7
ATOM      7  N   UNL     1      86.114   0.827  11.676  1.00  0.00    -0.308 N 
ATOM      8  N   UNL     1      88.134   1.029  12.776  1.00  0.00    -0.308 N 
ATOM      9  C   UNL     1      86.776   0.653  12.902  1.00  0.00     0.323 C 
ATOM     10  H   UNL     1      88.422   1.357  11.858  1.00  0.00     0.171 HD
ATOM     11  O   UNL     1      86.259   0.237  13.935  1.00  0.00    -0.248 OA
ATOM     12  H   UNL     1      86.672   1.181  10.904  1.00  0.00     0.171 HD
BRANCH   8  13
ATOM     13  C   UNL     1      89.137   1.013  13.747  1.00  0.00     0.043 A 
ATOM     14  Cl  UNL     1      92.380   0.917  16.887  1.00  0.00    -0.084 Cl
ATOM     15  C   UNL     1      91.139   0.978  15.689  1.00  0.00     0.053 A 
ATOM     16  C   UNL     1      90.523   2.180  15.344  1.00  0.00     0.076 A 
ATOM     17  C   UNL     1      90.754  -0.208  15.064  1.00  0.00     0.023 A 
ATOM     18  C   UNL     1      89.522   2.198  14.373  1.00  0.00     0.040 A 
ATOM     19  C   UNL     1      89.752  -0.191  14.093  1.00  0.00     0.028 A 
BRANCH  16  20
ATOM     20  C   UNL     1      90.907   3.472  15.992  1.00  0.00     0.417 C 
ATOM     21  F   UNL     1      90.739   3.472  17.347  1.00  0.00    -0.166 F 
ATOM     22  F   UNL     1      92.213   3.813  15.793  1.00  0.00    -0.166 F 
ATOM     23  F   UNL     1      90.175   4.525  15.530  1.00  0.00    -0.166 F 
ENDBRANCH  16  20
ENDBRANCH   8  13
ENDBRANCH   1   7
BRANCH   2  24
ATOM     24  O   UNL     1      80.790  -0.186  10.499  1.00  0.00    -0.457 OA
BRANCH  24  25
ATOM     25  C   UNL     1      80.244   0.440   9.390  1.00  0.00     0.131 A 
ATOM     26  C   UNL     1      79.060   1.132   9.522  1.00  0.00     0.081 A 
ATOM     27  C   UNL     1      80.900   0.356   8.181  1.00  0.00     0.067 A 
ATOM     28  C   UNL     1      78.557   1.741   8.383  1.00  0.00     0.131 A 
ATOM     29  C   UNL     1      80.315   1.001   7.102  1.00  0.00     0.116 A 
ATOM     30  N   UNL     1      79.156   1.693   7.172  1.00  0.00    -0.251 NA
BRANCH  28  31
ATOM     31  C   UNL     1      77.313   2.489   8.441  1.00  0.00     0.269 C 
ATOM     32  O   UNL     1      76.341   2.051   9.083  1.00  0.00    -0.268 OA
ATOM     33  N   UNL     1      77.276   3.717   7.770  1.00  0.00    -0.354 N 
ATOM     34  C   UNL     1      76.121   4.587   7.755  1.00  0.00     0.143 C 
ATOM     35  H   UNL     1      78.113   4.037   7.290  1.00  0.00     0.163 HD
ENDBRANCH  28  31
ENDBRANCH  24  25
ENDBRANCH   2  24
TORSDOF 6
ENDMDL
MODEL 19
REMARK VINA RESULT:    -7.014      7.563      9.810
REMARK INTER + INTRA:         -10.484
REMARK INTER:                  -9.474
REMARK INTRA:                  -1.010
REMARK UNBOUND:                -1.010
REMARK SMILES CNC(=O)c1cc(Oc2ccc(NC(=O)Nc3ccc(Cl)c(C(F)(F)F)c3)cc2)ccn1
REMARK SMILES IDX 12 1 9 2 11 3 28 4 10 5 29 6 13 7 16 8 14 9 15 11 17 13
REMARK SMILES IDX 21 14 20 15 22 16 19 17 27 18 18 19 23 20 24 21 25 22 26 23
REMARK SMILES IDX 8 24 7 25 6 26 30 27 5 28 31 29 32 30 3 31 4 32 2 33 1 34
REMARK H PARENT 16 10 13 12 2 35
REMARK Flexibility Score: inf
ROOT
ATOM      1  C   UNL     1      85.932   5.400  11.629  1.00  0.00     0.043 A 
ATOM      2  C   UNL     1      85.988   2.634  11.502  1.00  0.00     0.127 A 
ATOM      3  C   UNL     1      85.554   4.663  12.740  1.00  0.00     0.030 A 
ATOM      4  C   UNL     1      86.336   4.784  10.456  1.00  0.00     0.030 A 
ATOM      5  C   UNL     1      85.583   3.270  12.675  1.00  0.00     0.049 A 
ATOM      6  C   UNL     1      86.365   3.390  10.393  1.00  0.00     0.049 A 
ENDROOT
BRANCH   1   7
ATOM      7  N   UNL     1      85.903   6.813  11.694  1.00  0.00    -0.308 N 
ATOM      8  N   UNL     1      85.302   9.027  11.425  1.00  0.00    -0.308 N 
ATOM      9  C   UNL     1      84.965   7.686  11.119  1.00  0.00     0.323 C 
ATOM     10  H   UNL     1      86.136   9.158  11.990  1.00  0.00     0.171 HD
ATOM     11  O   UNL     1      83.995   7.344  10.450  1.00  0.00    -0.248 OA
ATOM     12  H   UNL     1      86.658   7.241  12.225  1.00  0.00     0.171 HD
BRANCH   8  13
ATOM     13  C   UNL     1      84.640  10.197  11.051  1.00  0.00     0.043 A 
ATOM     14  Cl  UNL     1      82.533  13.998   9.827  1.00  0.00    -0.084 Cl
ATOM     15  C   UNL     1      83.318  12.538  10.306  1.00  0.00     0.053 A 
ATOM     16  C   UNL     1      82.674  11.600  11.112  1.00  0.00     0.076 A 
ATOM     17  C   UNL     1      84.624  12.306   9.873  1.00  0.00     0.023 A 
ATOM     18  C   UNL     1      83.335  10.429  11.485  1.00  0.00     0.040 A 
ATOM     19  C   UNL     1      85.285  11.135  10.245  1.00  0.00     0.028 A 
BRANCH  16  20
ATOM     20  C   UNL     1      81.276  11.813  11.599  1.00  0.00     0.417 C 
ATOM     21  F   UNL     1      81.128  12.942  12.352  1.00  0.00    -0.166 F 
ATOM     22  F   UNL     1      80.363  11.930  10.593  1.00  0.00    -0.166 F 
ATOM     23  F   UNL     1      80.835  10.787  12.382  1.00  0.00    -0.166 F 
ENDBRANCH  16  20
ENDBRANCH   8  13
ENDBRANCH   1   7
BRANCH   2  24
ATOM     24  O   UNL     1      86.014   1.274  11.439  1.00  0.00    -0.457 OA
BRANCH  24  25
ATOM     25  C   UNL     1      85.043   0.647  10.677  1.00  0.00     0.131 A 
ATOM     26  C   UNL     1      83.714   0.845  10.983  1.00  0.00     0.081 A 
ATOM     27  C   UNL     1      85.428  -0.161   9.628  1.00  0.00     0.067 A 
ATOM     28  C   UNL     1      82.781   0.196  10.190  1.00  0.00     0.131 A 
ATOM     29  C   UNL     1      84.418  -0.765   8.895  1.00  0.00     0.116 A 
ATOM     30  N   UNL     1      83.100  -0.607   9.151  1.00  0.00    -0.251 NA
BRANCH  28  31
ATOM     31  C   UNL     1      81.360   0.355  10.450  1.00  0.00     0.269 C 
ATOM     32  O   UNL     1      80.963   0.785  11.549  1.00  0.00    -0.268 OA
ATOM     33  N   UNL     1      80.482   0.028   9.410  1.00  0.00    -0.354 N 
ATOM     34  C   UNL     1      79.045   0.155   9.507  1.00  0.00     0.143 C 
ATOM     35  H   UNL     1      80.869  -0.287   8.525  1.00  0.00     0.163 HD
ENDBRANCH  28  31
ENDBRANCH  24  25
ENDBRANCH   2  24
TORSDOF 6
ENDMDL
MODEL 20
REMARK VINA RESULT:    -6.937      6.802     11.447
REMARK INTER + INTRA:         -10.380
REMARK INTER:                  -9.528
REMARK INTRA:                  -0.852
REMARK UNBOUND:                -1.010
REMARK SMILES CNC(=O)c1cc(Oc2ccc(NC(=O)Nc3ccc(Cl)c(C(F)(F)F)c3)cc2)ccn1
REMARK SMILES IDX 12 1 9 2 11 3 28 4 10 5 29 6 13 7 16 8 14 9 15 11 17 13
REMARK SMILES IDX 21 14 20 15 22 16 19 17 27 18 18 19 23 20 24 21 25 22 26 23
REMARK SMILES IDX 8 24 7 25 6 26 30 27 5 28 31 29 32 30 3 31 4 32 2 33 1 34
REMARK H PARENT 16 10 13 12 2 35
REMARK Flexibility Score: inf
ROOT
ATOM      1  C   UNL     1      81.281   0.728   9.766  1.00  0.00     0.043 A 
ATOM      2  C   UNL     1      83.577   2.012  10.636  1.00  0.00     0.127 A 
ATOM      3  C   UNL     1      81.538   0.811  11.125  1.00  0.00     0.030 A 
ATOM      4  C   UNL     1      82.148   1.273   8.833  1.00  0.00     0.030 A 
ATOM      5  C   UNL     1      82.694   1.458  11.563  1.00  0.00     0.049 A 
ATOM      6  C   UNL     1      83.304   1.920   9.272  1.00  0.00     0.049 A 
ENDROOT
BRANCH   1   7
ATOM      7  N   UNL     1      80.109   0.073   9.322  1.00  0.00    -0.308 N 
ATOM      8  N   UNL     1      78.634  -1.503   8.501  1.00  0.00    -0.308 N 
ATOM      9  C   UNL     1      79.983  -1.240   8.840  1.00  0.00     0.323 C 
ATOM     10  H   UNL     1      77.981  -0.738   8.649  1.00  0.00     0.171 HD
ATOM     11  O   UNL     1      80.902  -2.046   8.727  1.00  0.00    -0.248 OA
ATOM     12  H   UNL     1      79.258   0.627   9.361  1.00  0.00     0.171 HD
BRANCH   8  13
ATOM     13  C   UNL     1      78.077  -2.676   7.989  1.00  0.00     0.043 A 
ATOM     14  Cl  UNL     1      76.261  -6.449   6.299  1.00  0.00    -0.084 Cl
ATOM     15  C   UNL     1      76.964  -5.020   6.964  1.00  0.00     0.053 A 
ATOM     16  C   UNL     1      77.613  -5.038   8.198  1.00  0.00     0.076 A 
ATOM     17  C   UNL     1      76.871  -3.830   6.242  1.00  0.00     0.023 A 
ATOM     18  C   UNL     1      78.170  -3.866   8.711  1.00  0.00     0.040 A 
ATOM     19  C   UNL     1      77.428  -2.658   6.754  1.00  0.00     0.028 A 
BRANCH  16  20
ATOM     20  C   UNL     1      77.732  -6.292   9.003  1.00  0.00     0.417 C 
ATOM     21  F   UNL     1      78.360  -7.307   8.339  1.00  0.00    -0.166 F 
ATOM     22  F   UNL     1      78.437  -6.130  10.159  1.00  0.00    -0.166 F 
ATOM     23  F   UNL     1      76.519  -6.790   9.375  1.00  0.00    -0.166 F 
ENDBRANCH  16  20
ENDBRANCH   8  13
ENDBRANCH   1   7
BRANCH   2  24
ATOM     24  O   UNL     1      84.706   2.641  11.064  1.00  0.00    -0.457 OA
BRANCH  24  25
ATOM     25  C   UNL     1      85.852   1.878  11.209  1.00  0.00     0.131 A 
ATOM     26  C   UNL     1      85.908   0.930  12.208  1.00  0.00     0.081 A 
ATOM     27  C   UNL     1      86.910   2.083  10.350  1.00  0.00     0.067 A 
ATOM     28  C   UNL     1      87.076   0.191  12.311  1.00  0.00     0.131 A 
ATOM     29  C   UNL     1      88.033   1.292  10.536  1.00  0.00     0.116 A 
ATOM     30  N   UNL     1      88.144   0.349  11.498  1.00  0.00    -0.251 NA
BRANCH  28  31
ATOM     31  C   UNL     1      87.211  -0.826  13.339  1.00  0.00     0.269 C 
ATOM     32  O   UNL     1      86.370  -0.919  14.252  1.00  0.00    -0.268 OA
ATOM     33  N   UNL     1      88.304  -1.696  13.235  1.00  0.00    -0.354 N 
ATOM     34  C   UNL     1      88.561  -2.773  14.164  1.00  0.00     0.143 C 
ATOM     35  H   UNL     1      88.938  -1.591  12.447  1.00  0.00     0.163 HD
ENDBRANCH  28  31
ENDBRANCH  24  25
ENDBRANCH   2  24
TORSDOF 6
ENDMDL
