REMARK SMILES CNC(=O)c1cc(Oc2ccc(NC(=O)Nc3ccc(Cl)c(C(F)(F)F)c3)cc2)ccn1
REMARK SMILES IDX 12 1 9 2 11 3 28 4 10 5 29 6 13 7 16 8 14 9 15 11 17 13
REMARK SMILES IDX 21 14 20 15 22 16 19 17 27 18 18 19 23 20 24 21 25 22 26 23
REMARK SMILES IDX 8 24 7 25 6 26 30 27 5 28 31 29 32 30 3 31 4 32 2 33 1 34
REMARK H PARENT 16 10 13 12 2 35
REMARK Flexibility Score: inf
ROOT
ATOM      1  C   UNL     1      82.189   1.128   9.886  1.00  0.00     0.043 A 
ATOM      2  C   UNL     1      79.581   0.771   9.023  1.00  0.00     0.127 A 
ATOM      3  C   UNL     1      81.384   0.198  10.525  1.00  0.00     0.030 A 
ATOM      4  C   UNL     1      81.717   1.883   8.825  1.00  0.00     0.030 A 
ATOM      5  C   UNL     1      80.072   0.019  10.090  1.00  0.00     0.049 A 
ATOM      6  C   UNL     1      80.403   1.703   8.390  1.00  0.00     0.049 A 
ENDROOT
BRANCH   1   7
ATOM      7  N   UNL     1      83.521   1.310  10.326  1.00  0.00    -0.308 N 
ATOM      8  N   UNL     1      85.724   1.983  10.484  1.00  0.00    -0.308 N 
ATOM      9  C   UNL     1      84.537   2.063   9.717  1.00  0.00     0.323 C 
ATOM     10  H   UNL     1      85.672   1.417  11.327  1.00  0.00     0.171 HD
ATOM     11  O   UNL     1      84.421   2.699   8.674  1.00  0.00    -0.248 OA
ATOM     12  H   UNL     1      83.763   0.834  11.191  1.00  0.00     0.171 HD
BRANCH   8  13
ATOM     13  C   UNL     1      86.963   2.578  10.238  1.00  0.00     0.043 A 
ATOM     14  Cl  UNL     1      90.953   4.521   9.407  1.00  0.00    -0.084 Cl
ATOM     15  C   UNL     1      89.437   3.767   9.744  1.00  0.00     0.053 A 
ATOM     16  C   UNL     1      89.304   2.837  10.775  1.00  0.00     0.076 A 
ATOM     17  C   UNL     1      88.334   4.102   8.960  1.00  0.00     0.023 A 
ATOM     18  C   UNL     1      88.066   2.242  11.022  1.00  0.00     0.040 A 
ATOM     19  C   UNL     1      87.096   3.508   9.207  1.00  0.00     0.028 A 
BRANCH  16  20
ATOM     20  C   UNL     1      90.463   2.450  11.636  1.00  0.00     0.417 C 
ATOM     21  F   UNL     1      90.150   1.515  12.581  1.00  0.00    -0.166 F 
ATOM     22  F   UNL     1      91.506   1.917  10.937  1.00  0.00    -0.166 F 
ATOM     23  F   UNL     1      90.980   3.509  12.322  1.00  0.00    -0.166 F 
ENDBRANCH  16  20
ENDBRANCH   8  13
ENDBRANCH   1   7
BRANCH   2  24
ATOM     24  O   UNL     1      78.299   0.597   8.600  1.00  0.00    -0.457 OA
BRANCH  24  25
ATOM     25  C   UNL     1      78.095   0.326   7.257  1.00  0.00     0.131 A 
ATOM     26  C   UNL     1      78.788  -0.708   6.665  1.00  0.00     0.081 A 
ATOM     27  C   UNL     1      77.203   1.097   6.543  1.00  0.00     0.067 A 
ATOM     28  C   UNL     1      78.547  -0.939   5.320  1.00  0.00     0.131 A 
ATOM     29  C   UNL     1      77.033   0.785   5.204  1.00  0.00     0.116 A 
ATOM     30  N   UNL     1      77.686  -0.216   4.571  1.00  0.00    -0.251 NA
BRANCH  28  31
ATOM     31  C   UNL     1      79.240  -2.011   4.626  1.00  0.00     0.269 C 
ATOM     32  O   UNL     1      80.046  -2.740   5.232  1.00  0.00    -0.268 OA
ATOM     33  N   UNL     1      78.938  -2.191   3.270  1.00  0.00    -0.354 N 
ATOM     34  C   UNL     1      79.524  -3.227   2.451  1.00  0.00     0.143 C 
ATOM     35  H   UNL     1      78.246  -1.584   2.839  1.00  0.00     0.163 HD
ENDBRANCH  28  31
ENDBRANCH  24  25
ENDBRANCH   2  24
TORSDOF 6
