MODEL 1
REMARK VINA RESULT:    -8.443      0.000      0.000
REMARK INTER + INTRA:         -10.348
REMARK INTER:                  -9.889
REMARK INTRA:                  -0.459
REMARK UNBOUND:                -0.424
REMARK  Name = /tmp/59BH6PR
REMARK                            x       y       z     vdW  Elec       q    Type
REMARK                         _______ _______ _______ _____ _____    ______ ____
ROOT
ATOM      1  H   LIG    1        5.371  -5.705   2.874  0.00  0.00    +0.156 HD
ATOM      2  N   LIG    1        4.916  -5.175   3.612  0.00  0.00    -0.269 N 
ATOM      3  C   LIG    1        5.412  -5.430   4.888  0.00  0.00    +0.308 C 
ATOM      4  N   LIG    1        6.170  -6.583   4.904  0.00  0.00    -0.269 N 
ATOM      5  H   LIG    1        6.103  -7.197   4.104  0.00  0.00    +0.156 HD
ATOM      6  O   LIG    1        5.184  -4.688   5.835  0.00  0.00    -0.252 OA
ENDROOT
BRANCH   2   7
ATOM      7  C   LIG    1        4.105  -4.081   3.251  0.00  0.00    +0.037 A 
ATOM      8  C   LIG    1        2.808  -4.376   2.760  0.00  0.00    +0.026 A 
ATOM      9  C   LIG    1        1.955  -3.365   2.296  0.00  0.00    +0.037 A 
ATOM     10  C   LIG    1        2.438  -2.081   2.365  0.00  0.00    +0.115 A 
ATOM     11  C   LIG    1        3.667  -1.782   2.874  0.00  0.00    +0.117 A 
ATOM     12  O   LIG    1        3.816  -0.557   2.830  0.00  0.00    -0.255 OA
ATOM     13  C   LIG    1        2.746  -0.139   2.300  0.00  0.00    +0.498 C 
ATOM     14  F   LIG    1        3.062   0.511   1.167  0.00  0.00    -0.147 F 
ATOM     15  F   LIG    1        2.173   0.741   3.138  0.00  0.00    -0.147 F 
ATOM     16  O   LIG    1        1.892  -1.027   2.019  0.00  0.00    -0.255 OA
ATOM     17  C   LIG    1        4.533  -2.745   3.340  0.00  0.00    +0.059 A 
ENDBRANCH   2   7
BRANCH   4  18
ATOM     18  C   LIG    1        6.871  -7.127   6.002  0.00  0.00    +0.035 A 
ATOM     19  C   LIG    1        8.144  -6.610   6.262  0.00  0.00    +0.025 A 
ATOM     20  C   LIG    1        8.913  -7.111   7.314  0.00  0.00    +0.022 A 
ATOM     21  C   LIG    1        8.412  -8.126   8.133  0.00  0.00    +0.053 A 
ATOM     22  C   LIG    1        7.134  -8.646   7.905  0.00  0.00    +0.075 A 
ATOM     23 CL   LIG    1        9.425  -8.691   9.408  0.00  0.00    -0.083 Cl
ATOM     24  C   LIG    1        6.369  -8.133   6.833  0.00  0.00    +0.037 A 
BRANCH  22  25
ATOM     25  C   LIG    1        6.570  -9.740   8.776  0.00  0.00    +0.419 C 
ATOM     26  F   LIG    1        6.386  -9.355  10.067  0.00  0.00    -0.166 F 
ATOM     27  F   LIG    1        7.351 -10.853   8.803  0.00  0.00    -0.166 F 
ATOM     28  F   LIG    1        5.346 -10.170   8.350  0.00  0.00    -0.166 F 
ENDBRANCH  22  25
ENDBRANCH   4  18
TORSDOF 3                                   
ENDMDL
MODEL 2
REMARK VINA RESULT:    -8.406      1.563      2.129
REMARK INTER + INTRA:         -10.305
REMARK INTER:                  -9.815
REMARK INTRA:                  -0.490
REMARK UNBOUND:                -0.424
REMARK  Name = /tmp/59BH6PR
REMARK                            x       y       z     vdW  Elec       q    Type
REMARK                         _______ _______ _______ _____ _____    ______ ____
ROOT
ATOM      1  H   LIG    1        5.413  -5.744   2.922  0.00  0.00    +0.156 HD
ATOM      2  N   LIG    1        4.901  -5.291   3.673  0.00  0.00    -0.269 N 
ATOM      3  C   LIG    1        5.233  -5.747   4.946  0.00  0.00    +0.308 C 
ATOM      4  N   LIG    1        5.928  -6.937   4.881  0.00  0.00    -0.269 N 
ATOM      5  H   LIG    1        5.924  -7.432   4.000  0.00  0.00    +0.156 HD
ATOM      6  O   LIG    1        4.932  -5.126   5.959  0.00  0.00    -0.252 OA
ENDROOT
BRANCH   2   7
ATOM      7  C   LIG    1        4.192  -4.109   3.385  0.00  0.00    +0.037 A 
ATOM      8  C   LIG    1        2.906  -4.256   2.804  0.00  0.00    +0.026 A 
ATOM      9  C   LIG    1        2.154  -3.142   2.403  0.00  0.00    +0.037 A 
ATOM     10  C   LIG    1        2.723  -1.911   2.624  0.00  0.00    +0.115 A 
ATOM     11  C   LIG    1        3.940  -1.757   3.219  0.00  0.00    +0.117 A 
ATOM     12  O   LIG    1        4.178  -0.548   3.305  0.00  0.00    -0.255 OA
ATOM     13  C   LIG    1        3.172  -0.001   2.769  0.00  0.00    +0.498 C 
ATOM     14  F   LIG    1        3.595   0.729   1.723  0.00  0.00    -0.147 F 
ATOM     15  F   LIG    1        2.616   0.835   3.662  0.00  0.00    -0.147 F 
ATOM     16  O   LIG    1        2.274  -0.790   2.359  0.00  0.00    -0.255 OA
ATOM     17  C   LIG    1        4.708  -2.824   3.627  0.00  0.00    +0.059 A 
ENDBRANCH   2   7
BRANCH   4  18
ATOM     18  C   LIG    1        6.470  -7.669   5.961  0.00  0.00    +0.035 A 
ATOM     19  C   LIG    1        5.867  -8.893   6.264  0.00  0.00    +0.025 A 
ATOM     20  C   LIG    1        6.327  -9.665   7.333  0.00  0.00    +0.022 A 
ATOM     21  C   LIG    1        7.409  -9.232   8.102  0.00  0.00    +0.053 A 
ATOM     22  C   LIG    1        8.042  -8.021   7.805  0.00  0.00    +0.075 A 
ATOM     23 CL   LIG    1        7.913 -10.242   9.405  0.00  0.00    -0.083 Cl
ATOM     24  C   LIG    1        7.561  -7.247   6.724  0.00  0.00    +0.037 A 
BRANCH  22  25
ATOM     25  C   LIG    1        9.213  -7.532   8.619  0.00  0.00    +0.419 C 
ATOM     26  F   LIG    1       10.276  -8.379   8.589  0.00  0.00    -0.166 F 
ATOM     27  F   LIG    1        8.904  -7.331   9.927  0.00  0.00    -0.166 F 
ATOM     28  F   LIG    1        9.695  -6.334   8.175  0.00  0.00    -0.166 F 
ENDBRANCH  22  25
ENDBRANCH   4  18
TORSDOF 3                                   
ENDMDL
MODEL 3
REMARK VINA RESULT:    -8.366      3.594      9.432
REMARK INTER + INTRA:         -10.258
REMARK INTER:                  -9.872
REMARK INTRA:                  -0.386
REMARK UNBOUND:                -0.424
REMARK  Name = /tmp/59BH6PR
REMARK                            x       y       z     vdW  Elec       q    Type
REMARK                         _______ _______ _______ _____ _____    ______ ____
ROOT
ATOM      1  H   LIG    1        6.039  -7.429   4.167  0.00  0.00    +0.156 HD
ATOM      2  N   LIG    1        6.191  -6.872   5.002  0.00  0.00    -0.269 N 
ATOM      3  C   LIG    1        5.547  -5.637   4.990  0.00  0.00    +0.308 C 
ATOM      4  N   LIG    1        5.130  -5.307   3.717  0.00  0.00    -0.269 N 
ATOM      5  H   LIG    1        5.505  -5.845   2.949  0.00  0.00    +0.156 HD
ATOM      6  O   LIG    1        5.389  -4.976   6.010  0.00  0.00    -0.252 OA
ENDROOT
BRANCH   2   7
ATOM      7  C   LIG    1        6.739  -7.500   6.137  0.00  0.00    +0.037 A 
ATOM      8  C   LIG    1        5.992  -8.563   6.707  0.00  0.00    +0.026 A 
ATOM      9  C   LIG    1        6.408  -9.197   7.887  0.00  0.00    +0.037 A 
ATOM     10  C   LIG    1        7.583  -8.747   8.439  0.00  0.00    +0.115 A 
ATOM     11  C   LIG    1        8.329  -7.754   7.877  0.00  0.00    +0.117 A 
ATOM     12  O   LIG    1        9.332  -7.581   8.577  0.00  0.00    -0.255 OA
ATOM     13  C   LIG    1        9.188  -8.407   9.524  0.00  0.00    +0.498 C 
ATOM     14  F   LIG    1        9.155  -7.722  10.679  0.00  0.00    -0.147 F 
ATOM     15  F   LIG    1       10.261  -9.214   9.550  0.00  0.00    -0.147 F 
ATOM     16  O   LIG    1        8.154  -9.130   9.467  0.00  0.00    -0.255 OA
ATOM     17  C   LIG    1        7.956  -7.107   6.721  0.00  0.00    +0.059 A 
ENDBRANCH   2   7
BRANCH   4  18
ATOM     18  C   LIG    1        4.401  -4.162   3.329  0.00  0.00    +0.035 A 
ATOM     19  C   LIG    1        4.952  -2.918   3.653  0.00  0.00    +0.025 A 
ATOM     20  C   LIG    1        4.282  -1.738   3.327  0.00  0.00    +0.022 A 
ATOM     21  C   LIG    1        3.060  -1.783   2.654  0.00  0.00    +0.053 A 
ATOM     22  C   LIG    1        2.497  -3.014   2.300  0.00  0.00    +0.075 A 
ATOM     23 CL   LIG    1        2.296  -0.281   2.290  0.00  0.00    -0.083 Cl
ATOM     24  C   LIG    1        3.184  -4.201   2.643  0.00  0.00    +0.037 A 
BRANCH  22  25
ATOM     25  C   LIG    1        1.180  -3.090   1.572  0.00  0.00    +0.419 C 
ATOM     26  F   LIG    1        1.192  -2.445   0.375  0.00  0.00    -0.166 F 
ATOM     27  F   LIG    1        0.146  -2.574   2.288  0.00  0.00    -0.166 F 
ATOM     28  F   LIG    1        0.813  -4.374   1.285  0.00  0.00    -0.166 F 
ENDBRANCH  22  25
ENDBRANCH   4  18
TORSDOF 3                                   
ENDMDL
MODEL 4
REMARK VINA RESULT:    -8.325      1.449      2.138
REMARK INTER + INTRA:         -10.210
REMARK INTER:                  -9.699
REMARK INTRA:                  -0.511
REMARK UNBOUND:                -0.424
REMARK  Name = /tmp/59BH6PR
REMARK                            x       y       z     vdW  Elec       q    Type
REMARK                         _______ _______ _______ _____ _____    ______ ____
ROOT
ATOM      1  H   LIG    1        6.245  -5.444   3.092  0.00  0.00    +0.156 HD
ATOM      2  N   LIG    1        5.465  -5.255   3.715  0.00  0.00    -0.269 N 
ATOM      3  C   LIG    1        5.677  -5.654   5.032  0.00  0.00    +0.308 C 
ATOM      4  N   LIG    1        6.750  -6.516   5.122  0.00  0.00    -0.269 N 
ATOM      5  H   LIG    1        7.101  -6.916   4.264  0.00  0.00    +0.156 HD
ATOM      6  O   LIG    1        4.977  -5.253   5.954  0.00  0.00    -0.252 OA
ENDROOT
BRANCH   2   7
ATOM      7  C   LIG    1        4.452  -4.381   3.276  0.00  0.00    +0.037 A 
ATOM      8  C   LIG    1        4.653  -2.996   3.505  0.00  0.00    +0.026 A 
ATOM      9  C   LIG    1        3.668  -2.051   3.183  0.00  0.00    +0.037 A 
ATOM     10  C   LIG    1        2.517  -2.540   2.617  0.00  0.00    +0.115 A 
ATOM     11  C   LIG    1        2.329  -3.866   2.354  0.00  0.00    +0.117 A 
ATOM     12  O   LIG    1        1.221  -4.002   1.827  0.00  0.00    -0.255 OA
ATOM     13  C   LIG    1        0.752  -2.828   1.796  0.00  0.00    +0.498 C 
ATOM     14  F   LIG    1       -0.391  -2.811   2.502  0.00  0.00    -0.147 F 
ATOM     15  F   LIG    1        0.457  -2.522   0.522  0.00  0.00    -0.147 F 
ATOM     16  O   LIG    1        1.508  -1.925   2.252  0.00  0.00    -0.255 OA
ATOM     17  C   LIG    1        3.271  -4.823   2.654  0.00  0.00    +0.059 A 
ENDBRANCH   2   7
BRANCH   4  18
ATOM     18  C   LIG    1        7.291  -7.085   6.297  0.00  0.00    +0.035 A 
ATOM     19  C   LIG    1        8.527  -6.594   6.728  0.00  0.00    +0.025 A 
ATOM     20  C   LIG    1        9.142  -7.121   7.866  0.00  0.00    +0.022 A 
ATOM     21  C   LIG    1        8.520  -8.133   8.600  0.00  0.00    +0.053 A 
ATOM     22  C   LIG    1        7.273  -8.626   8.200  0.00  0.00    +0.075 A 
ATOM     23 CL   LIG    1        9.345  -8.731   9.990  0.00  0.00    -0.083 Cl
ATOM     24  C   LIG    1        6.666  -8.088   7.042  0.00  0.00    +0.037 A 
BRANCH  22  25
ATOM     25  C   LIG    1        6.579  -9.717   8.976  0.00  0.00    +0.419 C 
ATOM     26  F   LIG    1        7.321 -10.852   9.083  0.00  0.00    -0.166 F 
ATOM     27  F   LIG    1        5.384 -10.074   8.437  0.00  0.00    -0.166 F 
ATOM     28  F   LIG    1        6.299  -9.348  10.261  0.00  0.00    -0.166 F 
ENDBRANCH  22  25
ENDBRANCH   4  18
TORSDOF 3                                   
ENDMDL
MODEL 5
REMARK VINA RESULT:    -8.293     18.401     20.270
REMARK INTER + INTRA:         -10.172
REMARK INTER:                  -9.603
REMARK INTRA:                  -0.569
REMARK UNBOUND:                -0.424
REMARK  Name = /tmp/59BH6PR
REMARK                            x       y       z     vdW  Elec       q    Type
REMARK                         _______ _______ _______ _____ _____    ______ ____
ROOT
ATOM      1  H   LIG    1       -6.240   2.669 -10.372  0.00  0.00    +0.156 HD
ATOM      2  N   LIG    1       -5.408   2.139 -10.613  0.00  0.00    -0.269 N 
ATOM      3  C   LIG    1       -5.397   0.837 -10.119  0.00  0.00    +0.308 C 
ATOM      4  N   LIG    1       -6.353   0.671  -9.137  0.00  0.00    -0.269 N 
ATOM      5  H   LIG    1       -6.772   1.504  -8.749  0.00  0.00    +0.156 HD
ATOM      6  O   LIG    1       -4.626  -0.015 -10.544  0.00  0.00    -0.252 OA
ENDROOT
BRANCH   2   7
ATOM      7  C   LIG    1       -4.560   2.640 -11.619  0.00  0.00    +0.037 A 
ATOM      8  C   LIG    1       -4.955   2.417 -12.964  0.00  0.00    +0.026 A 
ATOM      9  C   LIG    1       -4.140   2.801 -14.038  0.00  0.00    +0.037 A 
ATOM     10  C   LIG    1       -2.958   3.422 -13.714  0.00  0.00    +0.115 A 
ATOM     11  C   LIG    1       -2.588   3.679 -12.427  0.00  0.00    +0.117 A 
ATOM     12  O   LIG    1       -1.499   4.261 -12.447  0.00  0.00    -0.255 OA
ATOM     13  C   LIG    1       -1.213   4.330 -13.677  0.00  0.00    +0.498 C 
ATOM     14  F   LIG    1       -0.052   3.685 -13.877  0.00  0.00    -0.147 F 
ATOM     15  F   LIG    1       -1.032   5.622 -13.999  0.00  0.00    -0.147 F 
ATOM     16  O   LIG    1       -2.072   3.846 -14.466  0.00  0.00    -0.255 OA
ATOM     17  C   LIG    1       -3.359   3.318 -11.346  0.00  0.00    +0.059 A 
ENDBRANCH   2   7
BRANCH   4  18
ATOM     18  C   LIG    1       -6.668  -0.519  -8.446  0.00  0.00    +0.035 A 
ATOM     19  C   LIG    1       -6.125  -0.673  -7.167  0.00  0.00    +0.025 A 
ATOM     20  C   LIG    1       -6.367  -1.833  -6.428  0.00  0.00    +0.022 A 
ATOM     21  C   LIG    1       -7.172  -2.847  -6.950  0.00  0.00    +0.053 A 
ATOM     22  C   LIG    1       -7.744  -2.707  -8.219  0.00  0.00    +0.075 A 
ATOM     23 CL   LIG    1       -7.421  -4.247  -5.975  0.00  0.00    -0.083 Cl
ATOM     24  C   LIG    1       -7.484  -1.531  -8.958  0.00  0.00    +0.037 A 
BRANCH  22  25
ATOM     25  C   LIG    1       -8.619  -3.787  -8.804  0.00  0.00    +0.419 C 
ATOM     26  F   LIG    1       -9.646  -4.144  -7.988  0.00  0.00    -0.166 F 
ATOM     27  F   LIG    1       -7.934  -4.923  -9.099  0.00  0.00    -0.166 F 
ATOM     28  F   LIG    1       -9.207  -3.406  -9.976  0.00  0.00    -0.166 F 
ENDBRANCH  22  25
ENDBRANCH   4  18
TORSDOF 3                                   
ENDMDL
