REMARK  Name = /tmp/59BH6PR
REMARK                            x       y       z     vdW  Elec       q    Type
REMARK                         _______ _______ _______ _____ _____    ______ ____
ROOT
ATOM      1  H   LIG    1        6.662 -10.134   0.273  0.00  0.00    +0.156 HD
ATOM      2  N   LIG    1        6.937  -9.159   0.210  0.00  0.00    -0.269 N 
ATOM      3  C   LIG    1        6.922  -8.643  -1.084  0.00  0.00    +0.308 C 
ATOM      4  N   LIG    1        6.867  -9.655  -2.020  0.00  0.00    -0.269 N 
ATOM      5  H   LIG    1        7.058 -10.595  -1.704  0.00  0.00    +0.156 HD
ATOM      6  O   LIG    1        6.946  -7.438  -1.304  0.00  0.00    -0.252 OA
ENDROOT
BRANCH   2   7
ATOM      7  C   LIG    1        6.993  -8.399   1.394  0.00  0.00    +0.037 A 
ATOM      8  C   LIG    1        8.271  -8.213   1.980  0.00  0.00    +0.026 A 
ATOM      9  C   LIG    1        8.424  -7.545   3.203  0.00  0.00    +0.037 A 
ATOM     10  C   LIG    1        7.275  -7.066   3.784  0.00  0.00    +0.115 A 
ATOM     11  C   LIG    1        6.046  -7.203   3.209  0.00  0.00    +0.117 A 
ATOM     12  O   LIG    1        5.214  -6.658   3.942  0.00  0.00    -0.255 OA
ATOM     13  C   LIG    1        5.898  -6.237   4.918  0.00  0.00    +0.498 C 
ATOM     14  F   LIG    1        5.434  -6.814   6.039  0.00  0.00    -0.147 F 
ATOM     15  F   LIG    1        5.713  -4.911   5.026  0.00  0.00    -0.147 F 
ATOM     16  O   LIG    1        7.141  -6.455   4.851  0.00  0.00    -0.255 OA
ATOM     17  C   LIG    1        5.854  -7.851   2.011  0.00  0.00    +0.059 A 
ENDBRANCH   2   7
BRANCH   4  18
ATOM     18  C   LIG    1        6.786  -9.515  -3.423  0.00  0.00    +0.035 A 
ATOM     19  C   LIG    1        7.956  -9.752  -4.152  0.00  0.00    +0.025 A 
ATOM     20  C   LIG    1        7.966  -9.610  -5.542  0.00  0.00    +0.022 A 
ATOM     21  C   LIG    1        6.803  -9.247  -6.223  0.00  0.00    +0.053 A 
ATOM     22  C   LIG    1        5.615  -9.025  -5.518  0.00  0.00    +0.075 A 
ATOM     23 CL   LIG    1        6.901  -9.091  -7.937  0.00  0.00    -0.083 Cl
ATOM     24  C   LIG    1        5.621  -9.166  -4.111  0.00  0.00    +0.037 A 
BRANCH  22  25
ATOM     25  C   LIG    1        4.346  -8.634  -6.230  0.00  0.00    +0.419 C 
ATOM     26  F   LIG    1        3.901  -9.588  -7.091  0.00  0.00    -0.166 F 
ATOM     27  F   LIG    1        4.469  -7.483  -6.943  0.00  0.00    -0.166 F 
ATOM     28  F   LIG    1        3.309  -8.415  -5.369  0.00  0.00    -0.166 F 
ENDBRANCH  22  25
ENDBRANCH   4  18
TORSDOF 3                                   
