REMARK SMILES CC(C)(C)c1cc(NC(=O)Nc2cccc(Cl)c2Cl)n(-c2ccc3c(c2)C[C@@H](C(=O)O)NC3)n1
REMARK SMILES IDX 32 2 27 3 25 4 28 5 24 6 33 7 21 8 26 9 23 10 22 11 29 12
REMARK SMILES IDX 30 13 31 14 20 16 34 17 7 18 5 19 6 20 8 21 9 23 10 24 11 25
REMARK SMILES IDX 12 27 18 28 13 29 19 30 16 31 14 32 17 33 15 34 2 35 1 36
REMARK SMILES IDX 3 37 4 38
REMARK H PARENT 32 1 31 15 8 22 11 26
REMARK Flexibility Score: inf
ROOT
ATOM      1  H   UNL     1      25.740  23.505   6.433  1.00  0.00     0.123 HD
ATOM      2  N   UNL     1      25.420  23.702   7.370  1.00  0.00    -0.300 NA
ATOM      3  C   UNL     1      24.957  25.489   8.999  1.00  0.00    -0.001 C 
ATOM      4  C   UNL     1      23.813  24.658   9.523  1.00  0.00    -0.039 A 
ATOM      5  C   UNL     1      25.312  25.151   7.548  1.00  0.00     0.110 C 
ATOM      6  C   UNL     1      23.438  23.472   8.866  1.00  0.00    -0.031 A 
ATOM      7  C   UNL     1      24.115  23.062   7.581  1.00  0.00     0.022 C 
ATOM      8  C   UNL     1      22.114  24.256  11.206  1.00  0.00     0.067 A 
ATOM      9  C   UNL     1      23.153  25.035  10.700  1.00  0.00    -0.033 A 
ATOM     10  C   UNL     1      22.387  22.701   9.378  1.00  0.00    -0.055 A 
ATOM     11  C   UNL     1      21.730  23.092  10.545  1.00  0.00    -0.036 A 
ENDROOT
BRANCH   5  12
ATOM     12  C   UNL     1      26.648  25.725   7.200  1.00  0.00     0.321 C 
ATOM     13  O   UNL     1      27.588  25.090   6.745  1.00  0.00    -0.251 OA
BRANCH  12  14
ATOM     14  O   UNL     1      26.681  27.054   7.462  1.00  0.00    -0.480 OA
ATOM     15  H   UNL     1      27.401  27.244   8.068  1.00  0.00     0.296 HD
ENDBRANCH  12  14
ENDBRANCH   5  12
BRANCH   8  16
ATOM     16  N   UNL     1      21.465  24.638  12.366  1.00  0.00    -0.217 N 
ATOM     17  N   UNL     1      21.972  25.629  13.130  1.00  0.00    -0.170 NA
ATOM     18  C   UNL     1      20.304  24.112  12.874  1.00  0.00     0.138 A 
ATOM     19  C   UNL     1      21.104  25.722  14.140  1.00  0.00     0.070 A 
ATOM     20  C   UNL     1      20.043  24.802  14.033  1.00  0.00     0.005 A 
BRANCH  18  21
ATOM     21  N   UNL     1      19.608  23.097  12.271  1.00  0.00    -0.292 N 
ATOM     22  H   UNL     1      20.140  22.277  12.018  1.00  0.00     0.173 HD
ATOM     23  C   UNL     1      18.222  23.068  11.963  1.00  0.00     0.324 C 
ATOM     24  O   UNL     1      17.430  23.974  12.198  1.00  0.00    -0.248 OA
ATOM     25  N   UNL     1      17.893  21.847  11.347  1.00  0.00    -0.306 N 
ATOM     26  H   UNL     1      18.656  21.197  11.220  1.00  0.00     0.171 HD
BRANCH  25  27
ATOM     27  C   UNL     1      16.627  21.418  10.885  1.00  0.00     0.063 A 
ATOM     28  C   UNL     1      16.441  20.138  10.385  1.00  0.00     0.083 A 
ATOM     29  C   UNL     1      15.577  22.321  10.951  1.00  0.00    -0.037 A 
ATOM     30  Cl  UNL     1      17.777  19.030  10.322  1.00  0.00    -0.080 Cl
ATOM     31  C   UNL     1      15.177  19.752   9.941  1.00  0.00     0.061 A 
ATOM     32  C   UNL     1      14.313  21.936  10.506  1.00  0.00    -0.059 A 
ATOM     33  Cl  UNL     1      14.856  18.176   9.303  1.00  0.00    -0.083 Cl
ATOM     34  C   UNL     1      14.112  20.651  10.001  1.00  0.00    -0.042 A 
ENDBRANCH  25  27
ENDBRANCH  18  21
BRANCH  19  35
ATOM     35  C   UNL     1      21.322  26.717  15.204  1.00  0.00     0.006 C 
ATOM     36  C   UNL     1      20.162  27.773  15.287  1.00  0.00    -0.054 C 
ATOM     37  C   UNL     1      22.629  27.586  15.073  1.00  0.00    -0.054 C 
ATOM     38  C   UNL     1      21.433  26.062  16.626  1.00  0.00    -0.054 C 
ENDBRANCH  19  35
ENDBRANCH   8  16
TORSDOF 6
