REMARK SMILES O=C(Nc1ccc2c(c1)OC(F)(F)O2)Nc1ccc(Cl)c(C(F)(F)F)c1
REMARK SMILES IDX 20 1 16 2 21 3 26 4 17 5 19 6 18 7 22 8 23 9 24 10 25 11
REMARK SMILES IDX 15 12 2 13 1 15 3 16 4 18 9 19 5 20 8 21 6 22 10 23 7 24
REMARK SMILES IDX 11 25 14 26 12 27 13 28
REMARK H PARENT 15 14 3 17
REMARK Flexibility Score: inf
ROOT
ATOM      1  Cl  UNL     1      81.056  -0.657   7.874  1.00  0.00    -0.084 Cl
ATOM      2  C   UNL     1      84.202   2.551   8.314  1.00  0.00     0.043 A 
ATOM      3  C   UNL     1      82.019   1.870   7.535  1.00  0.00     0.076 A 
ATOM      4  C   UNL     1      82.998   2.853   7.678  1.00  0.00     0.040 A 
ATOM      5  C   UNL     1      84.427   1.266   8.807  1.00  0.00     0.028 A 
ATOM      6  C   UNL     1      82.244   0.585   8.028  1.00  0.00     0.053 A 
ATOM      7  C   UNL     1      83.448   0.283   8.665  1.00  0.00     0.023 A 
ENDROOT
BRANCH   3   8
ATOM      8  C   UNL     1      80.742   2.233   6.850  1.00  0.00     0.417 C 
ATOM      9  F   UNL     1      80.768   3.494   6.332  1.00  0.00    -0.166 F 
ATOM     10  F   UNL     1      80.431   1.412   5.806  1.00  0.00    -0.166 F 
ATOM     11  F   UNL     1      79.653   2.195   7.673  1.00  0.00    -0.166 F 
ENDBRANCH   3   8
BRANCH   2  12
ATOM     12  N   UNL     1      85.195   3.548   8.457  1.00  0.00    -0.308 N 
ATOM     13  C   UNL     1      86.547   3.379   8.798  1.00  0.00     0.323 C 
ATOM     14  H   UNL     1      84.883   4.502   8.291  1.00  0.00     0.171 HD
ATOM     15  O   UNL     1      87.091   2.304   9.029  1.00  0.00    -0.248 OA
ATOM     16  N   UNL     1      87.198   4.636   8.834  1.00  0.00    -0.308 N 
ATOM     17  H   UNL     1      86.618   5.444   8.618  1.00  0.00     0.171 HD
BRANCH  16  18
ATOM     18  C   UNL     1      88.533   4.919   9.126  1.00  0.00     0.046 A 
ATOM     19  C   UNL     1      89.415   3.873   9.406  1.00  0.00     0.077 A 
ATOM     20  C   UNL     1      88.976   6.253   9.137  1.00  0.00     0.030 A 
ATOM     21  C   UNL     1      90.726   4.200   9.689  1.00  0.00     0.174 A 
ATOM     22  C   UNL     1      90.309   6.557   9.427  1.00  0.00     0.053 A 
ATOM     23  O   UNL     1      91.722   3.320   9.985  1.00  0.00    -0.395 OA
ATOM     24  C   UNL     1      91.160   5.507   9.700  1.00  0.00     0.172 A 
ATOM     25  C   UNL     1      92.817   4.226  10.178  1.00  0.00     0.586 C 
ATOM     26  O   UNL     1      92.485   5.611  10.002  1.00  0.00    -0.395 OA
ATOM     27  F   UNL     1      93.806   3.904   9.308  1.00  0.00    -0.125 F 
ATOM     28  F   UNL     1      93.305   4.054  11.433  1.00  0.00    -0.125 F 
ENDBRANCH  16  18
ENDBRANCH   2  12
TORSDOF 3
