MODEL 1
REMARK VINA RESULT:   -12.895      0.000      0.000
REMARK INTER + INTRA:         -18.700
REMARK INTER:                 -18.190
REMARK INTRA:                  -0.510
REMARK UNBOUND:                -0.528
REMARK SMILES Cc1ccc(NC(=O)c2ccc(CN3CCN(C)CC3)cc2)cc1Nc1nccc(-c2cccnc2)n1
REMARK SMILES IDX 5 1 24 2 23 3 2 4 4 5 3 6 1 7 6 8 8 9 7 10 9 12 10 13 22 14
REMARK SMILES IDX 11 15 21 16 12 17 13 18 14 19 15 20 20 21 16 22 19 23 17 24
REMARK SMILES IDX 18 25 25 26 26 28 37 29 27 30 30 31 28 32 29 33 31 34 32 35
REMARK SMILES IDX 36 36 33 37 35 38 34 39
REMARK H PARENT 6 11 25 27
REMARK Flexibility Score: inf
ROOT
ATOM      1  C   UNL     1      16.707  52.781  13.461  1.00  0.00     0.043 A 
ATOM      2  C   UNL     1      15.916  54.760  12.362  1.00  0.00     0.046 A 
ATOM      3  C   UNL     1      15.812  53.835  13.401  1.00  0.00     0.052 A 
ATOM      4  C   UNL     1      16.915  54.616  11.398  1.00  0.00    -0.027 A 
ATOM      5  C   UNL     1      17.704  52.623  12.513  1.00  0.00     0.026 A 
ATOM      6  C   UNL     1      17.808  53.548  11.474  1.00  0.00     0.008 A 
ATOM      7  C   UNL     1      17.049  55.591  10.273  1.00  0.00     0.046 C 
ENDROOT
BRANCH   1   8
ATOM      8  N   UNL     1      16.602  51.843  14.515  1.00  0.00    -0.322 N 
ATOM      9  O   UNL     1      14.842  52.706  15.807  1.00  0.00    -0.269 OA
ATOM     10  C   UNL     1      15.712  51.844  15.599  1.00  0.00     0.255 C 
ATOM     11  H   UNL     1      17.245  51.062  14.425  1.00  0.00     0.170 HD
BRANCH  10  12
ATOM     12  C   UNL     1      15.863  50.751  16.547  1.00  0.00     0.040 A 
ATOM     13  C   UNL     1      14.745  50.242  17.208  1.00  0.00     0.014 A 
ATOM     14  C   UNL     1      17.125  50.213  16.796  1.00  0.00     0.014 A 
ATOM     15  C   UNL     1      14.890  49.194  18.117  1.00  0.00     0.006 A 
ATOM     16  C   UNL     1      17.270  49.165  17.705  1.00  0.00     0.006 A 
ATOM     17  C   UNL     1      16.150  48.667  18.357  1.00  0.00    -0.034 A 
BRANCH  17  18
ATOM     18  C   UNL     1      16.307  47.535  19.338  1.00  0.00     0.120 C 
BRANCH  18  19
ATOM     19  N   UNL     1      17.603  47.578  20.015  1.00  0.00    -0.297 NA
ATOM     20  C   UNL     1      18.299  46.291  19.891  1.00  0.00     0.100 C 
ATOM     21  C   UNL     1      17.440  47.938  21.428  1.00  0.00     0.100 C 
ATOM     22  C   UNL     1      19.656  46.336  20.601  1.00  0.00     0.099 C 
ATOM     23  C   UNL     1      18.798  47.981  22.140  1.00  0.00     0.099 C 
ATOM     24  N   UNL     1      19.495  46.696  22.014  1.00  0.00    -0.304 NA
ATOM     25  C   UNL     1      20.790  46.741  22.690  1.00  0.00     0.105 C 
ENDBRANCH  18  19
ENDBRANCH  17  18
ENDBRANCH  10  12
ENDBRANCH   1   8
BRANCH   2  26
ATOM     26  N   UNL     1      15.003  55.837  12.301  1.00  0.00    -0.324 N 
ATOM     27  H   UNL     1      14.054  55.579  12.052  1.00  0.00     0.170 HD
BRANCH  26  28
ATOM     28  C   UNL     1      15.116  57.199  12.633  1.00  0.00     0.227 A 
ATOM     29  N   UNL     1      14.028  57.967  12.420  1.00  0.00    -0.213 NA
ATOM     30  N   UNL     1      16.301  57.605  13.131  1.00  0.00    -0.221 NA
ATOM     31  C   UNL     1      14.172  59.268  12.749  1.00  0.00     0.077 A 
ATOM     32  C   UNL     1      16.376  58.917  13.438  1.00  0.00     0.117 A 
ATOM     33  C   UNL     1      15.333  59.804  13.266  1.00  0.00     0.049 A 
BRANCH  31  34
ATOM     34  C   UNL     1      13.007  60.089  12.522  1.00  0.00     0.019 A 
ATOM     35  C   UNL     1      12.870  61.328  13.139  1.00  0.00     0.013 A 
ATOM     36  C   UNL     1      11.987  59.668  11.682  1.00  0.00     0.121 A 
ATOM     37  C   UNL     1      11.736  62.096  12.902  1.00  0.00     0.021 A 
ATOM     38  N   UNL     1      10.871  60.387  11.428  1.00  0.00    -0.264 NA
ATOM     39  C   UNL     1      10.774  61.585  12.045  1.00  0.00     0.111 A 
ENDBRANCH  31  34
ENDBRANCH  26  28
ENDBRANCH   2  26
TORSDOF 7
ENDMDL
MODEL 2
REMARK VINA RESULT:   -11.061      3.668     12.077
REMARK INTER + INTRA:         -16.116
REMARK INTER:                 -15.246
REMARK INTRA:                  -0.870
REMARK UNBOUND:                -0.528
REMARK SMILES Cc1ccc(NC(=O)c2ccc(CN3CCN(C)CC3)cc2)cc1Nc1nccc(-c2cccnc2)n1
REMARK SMILES IDX 5 1 24 2 23 3 2 4 4 5 3 6 1 7 6 8 8 9 7 10 9 12 10 13 22 14
REMARK SMILES IDX 11 15 21 16 12 17 13 18 14 19 15 20 20 21 16 22 19 23 17 24
REMARK SMILES IDX 18 25 25 26 26 28 37 29 27 30 30 31 28 32 29 33 31 34 32 35
REMARK SMILES IDX 36 36 33 37 35 38 34 39
REMARK H PARENT 6 11 25 27
REMARK Flexibility Score: inf
ROOT
ATOM      1  C   UNL     1      16.983  49.770  17.125  1.00  0.00     0.043 A 
ATOM      2  C   UNL     1      18.413  48.631  18.677  1.00  0.00     0.046 A 
ATOM      3  C   UNL     1      18.171  49.716  17.833  1.00  0.00     0.052 A 
ATOM      4  C   UNL     1      17.463  47.617  18.798  1.00  0.00    -0.027 A 
ATOM      5  C   UNL     1      16.030  48.772  17.233  1.00  0.00     0.026 A 
ATOM      6  C   UNL     1      16.271  47.687  18.076  1.00  0.00     0.008 A 
ATOM      7  C   UNL     1      17.696  46.444  19.693  1.00  0.00     0.046 C 
ENDROOT
BRANCH   1   8
ATOM      8  N   UNL     1      16.737  50.870  16.268  1.00  0.00    -0.322 N 
ATOM      9  O   UNL     1      14.447  51.275  16.586  1.00  0.00    -0.269 OA
ATOM     10  C   UNL     1      15.530  51.548  16.044  1.00  0.00     0.255 C 
ATOM     11  H   UNL     1      17.572  51.210  15.799  1.00  0.00     0.170 HD
BRANCH  10  12
ATOM     12  C   UNL     1      15.582  52.634  15.077  1.00  0.00     0.040 A 
ATOM     13  C   UNL     1      14.579  53.603  15.062  1.00  0.00     0.014 A 
ATOM     14  C   UNL     1      16.633  52.705  14.163  1.00  0.00     0.014 A 
ATOM     15  C   UNL     1      14.628  54.644  14.135  1.00  0.00     0.006 A 
ATOM     16  C   UNL     1      16.682  53.745  13.236  1.00  0.00     0.006 A 
ATOM     17  C   UNL     1      15.678  54.704  13.231  1.00  0.00    -0.034 A 
BRANCH  17  18
ATOM     18  C   UNL     1      15.732  55.828  12.230  1.00  0.00     0.120 C 
BRANCH  18  19
ATOM     19  N   UNL     1      15.063  57.030  12.725  1.00  0.00    -0.297 NA
ATOM     20  C   UNL     1      13.918  57.378  11.876  1.00  0.00     0.100 C 
ATOM     21  C   UNL     1      16.004  58.155  12.802  1.00  0.00     0.100 C 
ATOM     22  C   UNL     1      13.217  58.638  12.395  1.00  0.00     0.099 C 
ATOM     23  C   UNL     1      15.303  59.417  13.319  1.00  0.00     0.099 C 
ATOM     24  N   UNL     1      14.156  59.763  12.472  1.00  0.00    -0.304 NA
ATOM     25  C   UNL     1      13.488  60.964  12.969  1.00  0.00     0.105 C 
ENDBRANCH  18  19
ENDBRANCH  17  18
ENDBRANCH  10  12
ENDBRANCH   1   8
BRANCH   2  26
ATOM     26  N   UNL     1      19.624  48.577  19.402  1.00  0.00    -0.324 N 
ATOM     27  H   UNL     1      19.519  48.553  20.411  1.00  0.00     0.170 HD
BRANCH  26  28
ATOM     28  C   UNL     1      20.965  48.428  19.004  1.00  0.00     0.227 A 
ATOM     29  N   UNL     1      21.633  49.557  18.688  1.00  0.00    -0.213 NA
ATOM     30  N   UNL     1      21.454  47.171  18.975  1.00  0.00    -0.221 NA
ATOM     31  C   UNL     1      22.916  49.378  18.310  1.00  0.00     0.077 A 
ATOM     32  C   UNL     1      22.742  47.065  18.588  1.00  0.00     0.117 A 
ATOM     33  C   UNL     1      23.529  48.143  18.241  1.00  0.00     0.049 A 
BRANCH  31  34
ATOM     34  C   UNL     1      23.630  50.586  17.974  1.00  0.00     0.019 A 
ATOM     35  C   UNL     1      24.414  50.662  16.828  1.00  0.00     0.013 A 
ATOM     36  C   UNL     1      23.557  51.708  18.785  1.00  0.00     0.121 A 
ATOM     37  C   UNL     1      25.091  51.839  16.531  1.00  0.00     0.021 A 
ATOM     38  N   UNL     1      24.201  52.869  18.529  1.00  0.00    -0.264 NA
ATOM     39  C   UNL     1      24.952  52.905  17.406  1.00  0.00     0.111 A 
ENDBRANCH  31  34
ENDBRANCH  26  28
ENDBRANCH   2  26
TORSDOF 7
ENDMDL
MODEL 3
REMARK VINA RESULT:   -10.993      2.153     12.410
REMARK INTER + INTRA:         -16.019
REMARK INTER:                 -15.296
REMARK INTRA:                  -0.723
REMARK UNBOUND:                -0.528
REMARK SMILES Cc1ccc(NC(=O)c2ccc(CN3CCN(C)CC3)cc2)cc1Nc1nccc(-c2cccnc2)n1
REMARK SMILES IDX 5 1 24 2 23 3 2 4 4 5 3 6 1 7 6 8 8 9 7 10 9 12 10 13 22 14
REMARK SMILES IDX 11 15 21 16 12 17 13 18 14 19 15 20 20 21 16 22 19 23 17 24
REMARK SMILES IDX 18 25 25 26 26 28 37 29 27 30 30 31 28 32 29 33 31 34 32 35
REMARK SMILES IDX 36 36 33 37 35 38 34 39
REMARK H PARENT 6 11 25 27
REMARK Flexibility Score: inf
ROOT
ATOM      1  C   UNL     1      14.452  50.172  17.126  1.00  0.00     0.043 A 
ATOM      2  C   UNL     1      15.251  48.288  18.376  1.00  0.00     0.046 A 
ATOM      3  C   UNL     1      15.485  49.311  17.458  1.00  0.00     0.052 A 
ATOM      4  C   UNL     1      13.987  48.140  18.948  1.00  0.00    -0.027 A 
ATOM      5  C   UNL     1      13.192  50.039  17.684  1.00  0.00     0.026 A 
ATOM      6  C   UNL     1      12.957  49.016  18.602  1.00  0.00     0.008 A 
ATOM      7  C   UNL     1      13.708  47.051  19.933  1.00  0.00     0.046 C 
ENDROOT
BRANCH   1   8
ATOM      8  N   UNL     1      14.689  51.211  16.195  1.00  0.00    -0.322 N 
ATOM      9  O   UNL     1      17.003  51.063  15.827  1.00  0.00    -0.269 OA
ATOM     10  C   UNL     1      15.903  51.598  15.609  1.00  0.00     0.255 C 
ATOM     11  H   UNL     1      13.844  51.696  15.909  1.00  0.00     0.170 HD
BRANCH  10  12
ATOM     12  C   UNL     1      15.837  52.732  14.700  1.00  0.00     0.040 A 
ATOM     13  C   UNL     1      16.847  52.929  13.757  1.00  0.00     0.014 A 
ATOM     14  C   UNL     1      14.768  53.622  14.772  1.00  0.00     0.014 A 
ATOM     15  C   UNL     1      16.784  54.016  12.885  1.00  0.00     0.006 A 
ATOM     16  C   UNL     1      14.705  54.710  13.901  1.00  0.00     0.006 A 
ATOM     17  C   UNL     1      15.715  54.896  12.966  1.00  0.00    -0.034 A 
BRANCH  17  18
ATOM     18  C   UNL     1      15.646  56.070  12.026  1.00  0.00     0.120 C 
BRANCH  18  19
ATOM     19  N   UNL     1      14.901  57.187  12.604  1.00  0.00    -0.297 NA
ATOM     20  C   UNL     1      13.757  57.545  11.757  1.00  0.00     0.100 C 
ATOM     21  C   UNL     1      15.776  58.349  12.801  1.00  0.00     0.100 C 
ATOM     22  C   UNL     1      12.976  58.716  12.363  1.00  0.00     0.099 C 
ATOM     23  C   UNL     1      14.995  59.522  13.406  1.00  0.00     0.099 C 
ATOM     24  N   UNL     1      13.849  59.879  12.560  1.00  0.00    -0.304 NA
ATOM     25  C   UNL     1      13.105  60.995  13.140  1.00  0.00     0.105 C 
ENDBRANCH  18  19
ENDBRANCH  17  18
ENDBRANCH  10  12
ENDBRANCH   1   8
BRANCH   2  26
ATOM     26  N   UNL     1      16.304  47.410  18.716  1.00  0.00    -0.324 N 
ATOM     27  H   UNL     1      16.340  46.553  18.173  1.00  0.00     0.170 HD
BRANCH  26  28
ATOM     28  C   UNL     1      17.401  47.534  19.587  1.00  0.00     0.227 A 
ATOM     29  N   UNL     1      18.598  47.797  19.023  1.00  0.00    -0.213 NA
ATOM     30  N   UNL     1      17.151  47.377  20.903  1.00  0.00    -0.221 NA
ATOM     31  C   UNL     1      19.627  47.909  19.888  1.00  0.00     0.077 A 
ATOM     32  C   UNL     1      18.224  47.502  21.711  1.00  0.00     0.117 A 
ATOM     33  C   UNL     1      19.498  47.770  21.255  1.00  0.00     0.049 A 
BRANCH  31  34
ATOM     34  C   UNL     1      20.907  48.192  19.284  1.00  0.00     0.019 A 
ATOM     35  C   UNL     1      21.783  47.167  18.945  1.00  0.00     0.013 A 
ATOM     36  C   UNL     1      21.303  49.495  19.025  1.00  0.00     0.121 A 
ATOM     37  C   UNL     1      23.010  47.470  18.364  1.00  0.00     0.021 A 
ATOM     38  N   UNL     1      22.487  49.828  18.463  1.00  0.00    -0.264 NA
ATOM     39  C   UNL     1      23.311  48.805  18.146  1.00  0.00     0.111 A 
ENDBRANCH  31  34
ENDBRANCH  26  28
ENDBRANCH   2  26
TORSDOF 7
ENDMDL
MODEL 4
REMARK VINA RESULT:   -10.174      6.475     11.807
REMARK INTER + INTRA:         -14.866
REMARK INTER:                 -13.929
REMARK INTRA:                  -0.937
REMARK UNBOUND:                -0.528
REMARK SMILES Cc1ccc(NC(=O)c2ccc(CN3CCN(C)CC3)cc2)cc1Nc1nccc(-c2cccnc2)n1
REMARK SMILES IDX 5 1 24 2 23 3 2 4 4 5 3 6 1 7 6 8 8 9 7 10 9 12 10 13 22 14
REMARK SMILES IDX 11 15 21 16 12 17 13 18 14 19 15 20 20 21 16 22 19 23 17 24
REMARK SMILES IDX 18 25 25 26 26 28 37 29 27 30 30 31 28 32 29 33 31 34 32 35
REMARK SMILES IDX 36 36 33 37 35 38 34 39
REMARK H PARENT 6 11 25 27
REMARK Flexibility Score: inf
ROOT
ATOM      1  C   UNL     1      21.528  47.345  19.790  1.00  0.00     0.043 A 
ATOM      2  C   UNL     1      19.524  46.420  20.728  1.00  0.00     0.046 A 
ATOM      3  C   UNL     1      20.264  47.531  20.322  1.00  0.00     0.052 A 
ATOM      4  C   UNL     1      20.062  45.139  20.594  1.00  0.00    -0.027 A 
ATOM      5  C   UNL     1      22.076  46.082  19.650  1.00  0.00     0.026 A 
ATOM      6  C   UNL     1      21.338  44.970  20.056  1.00  0.00     0.008 A 
ATOM      7  C   UNL     1      19.293  43.931  21.021  1.00  0.00     0.046 C 
ENDROOT
BRANCH   1   8
ATOM      8  N   UNL     1      22.278  48.473  19.378  1.00  0.00    -0.322 N 
ATOM      9  O   UNL     1      20.623  49.940  18.590  1.00  0.00    -0.269 OA
ATOM     10  C   UNL     1      21.814  49.673  18.818  1.00  0.00     0.255 C 
ATOM     11  H   UNL     1      23.273  48.382  19.558  1.00  0.00     0.170 HD
BRANCH  10  12
ATOM     12  C   UNL     1      22.836  50.647  18.467  1.00  0.00     0.040 A 
ATOM     13  C   UNL     1      22.814  51.918  19.041  1.00  0.00     0.014 A 
ATOM     14  C   UNL     1      23.836  50.311  17.556  1.00  0.00     0.014 A 
ATOM     15  C   UNL     1      23.793  52.853  18.705  1.00  0.00     0.006 A 
ATOM     16  C   UNL     1      24.816  51.245  17.220  1.00  0.00     0.006 A 
ATOM     17  C   UNL     1      24.783  52.508  17.797  1.00  0.00    -0.034 A 
BRANCH  17  18
ATOM     18  C   UNL     1      25.842  53.515  17.434  1.00  0.00     0.120 C 
BRANCH  18  19
ATOM     19  N   UNL     1      25.393  54.416  16.372  1.00  0.00    -0.297 NA
ATOM     20  C   UNL     1      26.254  54.298  15.190  1.00  0.00     0.100 C 
ATOM     21  C   UNL     1      25.362  55.805  16.846  1.00  0.00     0.100 C 
ATOM     22  C   UNL     1      25.784  55.242  14.077  1.00  0.00     0.099 C 
ATOM     23  C   UNL     1      24.894  56.750  15.734  1.00  0.00     0.099 C 
ATOM     24  N   UNL     1      25.754  56.631  14.550  1.00  0.00    -0.304 NA
ATOM     25  C   UNL     1      25.303  57.530  13.490  1.00  0.00     0.105 C 
ENDBRANCH  18  19
ENDBRANCH  17  18
ENDBRANCH  10  12
ENDBRANCH   1   8
BRANCH   2  26
ATOM     26  N   UNL     1      18.234  46.609  21.270  1.00  0.00    -0.324 N 
ATOM     27  H   UNL     1      18.200  46.673  22.283  1.00  0.00     0.170 HD
BRANCH  26  28
ATOM     28  C   UNL     1      16.980  46.846  20.680  1.00  0.00     0.227 A 
ATOM     29  N   UNL     1      16.923  47.817  19.745  1.00  0.00    -0.213 NA
ATOM     30  N   UNL     1      15.954  46.080  21.106  1.00  0.00    -0.221 NA
ATOM     31  C   UNL     1      15.704  48.018  19.201  1.00  0.00     0.077 A 
ATOM     32  C   UNL     1      14.766  46.334  20.520  1.00  0.00     0.117 A 
ATOM     33  C   UNL     1      14.580  47.300  19.552  1.00  0.00     0.049 A 
BRANCH  31  34
ATOM     34  C   UNL     1      15.645  49.056  18.199  1.00  0.00     0.019 A 
ATOM     35  C   UNL     1      16.780  49.438  17.493  1.00  0.00     0.013 A 
ATOM     36  C   UNL     1      14.454  49.704  17.912  1.00  0.00     0.121 A 
ATOM     37  C   UNL     1      16.691  50.441  16.535  1.00  0.00     0.021 A 
ATOM     38  N   UNL     1      14.329  50.684  16.988  1.00  0.00    -0.264 NA
ATOM     39  C   UNL     1      15.453  51.027  16.322  1.00  0.00     0.111 A 
ENDBRANCH  31  34
ENDBRANCH  26  28
ENDBRANCH   2  26
TORSDOF 7
ENDMDL
MODEL 5
REMARK VINA RESULT:   -10.072      7.531     12.019
REMARK INTER + INTRA:         -14.721
REMARK INTER:                 -13.547
REMARK INTRA:                  -1.174
REMARK UNBOUND:                -0.528
REMARK SMILES Cc1ccc(NC(=O)c2ccc(CN3CCN(C)CC3)cc2)cc1Nc1nccc(-c2cccnc2)n1
REMARK SMILES IDX 5 1 24 2 23 3 2 4 4 5 3 6 1 7 6 8 8 9 7 10 9 12 10 13 22 14
REMARK SMILES IDX 11 15 21 16 12 17 13 18 14 19 15 20 20 21 16 22 19 23 17 24
REMARK SMILES IDX 18 25 25 26 26 28 37 29 27 30 30 31 28 32 29 33 31 34 32 35
REMARK SMILES IDX 36 36 33 37 35 38 34 39
REMARK H PARENT 6 11 25 27
REMARK Flexibility Score: inf
ROOT
ATOM      1  C   UNL     1      22.200  47.395  19.449  1.00  0.00     0.043 A 
ATOM      2  C   UNL     1      20.059  46.348  19.714  1.00  0.00     0.046 A 
ATOM      3  C   UNL     1      20.834  47.398  19.221  1.00  0.00     0.052 A 
ATOM      4  C   UNL     1      20.662  45.311  20.427  1.00  0.00    -0.027 A 
ATOM      5  C   UNL     1      22.814  46.375  20.155  1.00  0.00     0.026 A 
ATOM      6  C   UNL     1      22.040  45.325  20.648  1.00  0.00     0.008 A 
ATOM      7  C   UNL     1      19.856  44.175  20.967  1.00  0.00     0.046 C 
ENDROOT
BRANCH   1   8
ATOM      8  N   UNL     1      22.987  48.461  18.949  1.00  0.00    -0.322 N 
ATOM      9  O   UNL     1      22.352  50.262  20.313  1.00  0.00    -0.269 OA
ATOM     10  C   UNL     1      23.028  49.794  19.383  1.00  0.00     0.255 C 
ATOM     11  H   UNL     1      23.617  48.180  18.203  1.00  0.00     0.170 HD
BRANCH  10  12
ATOM     12  C   UNL     1      23.925  50.673  18.649  1.00  0.00     0.040 A 
ATOM     13  C   UNL     1      24.100  50.501  17.275  1.00  0.00     0.014 A 
ATOM     14  C   UNL     1      24.611  51.686  19.317  1.00  0.00     0.014 A 
ATOM     15  C   UNL     1      24.960  51.343  16.571  1.00  0.00     0.006 A 
ATOM     16  C   UNL     1      25.471  52.528  18.613  1.00  0.00     0.006 A 
ATOM     17  C   UNL     1      25.638  52.348  17.247  1.00  0.00    -0.034 A 
BRANCH  17  18
ATOM     18  C   UNL     1      26.566  53.258  16.487  1.00  0.00     0.120 C 
BRANCH  18  19
ATOM     19  N   UNL     1      25.838  54.312  15.783  1.00  0.00    -0.297 NA
ATOM     20  C   UNL     1      26.453  54.590  14.480  1.00  0.00     0.100 C 
ATOM     21  C   UNL     1      25.779  55.535  16.592  1.00  0.00     0.100 C 
ATOM     22  C   UNL     1      25.690  55.695  13.741  1.00  0.00     0.099 C 
ATOM     23  C   UNL     1      25.017  56.642  15.854  1.00  0.00     0.099 C 
ATOM     24  N   UNL     1      25.631  56.918  14.549  1.00  0.00    -0.304 NA
ATOM     25  C   UNL     1      24.900  57.971  13.846  1.00  0.00     0.105 C 
ENDBRANCH  18  19
ENDBRANCH  17  18
ENDBRANCH  10  12
ENDBRANCH   1   8
BRANCH   2  26
ATOM     26  N   UNL     1      18.666  46.349  19.480  1.00  0.00    -0.324 N 
ATOM     27  H   UNL     1      18.323  45.563  18.937  1.00  0.00     0.170 HD
BRANCH  26  28
ATOM     28  C   UNL     1      17.624  47.166  19.951  1.00  0.00     0.227 A 
ATOM     29  N   UNL     1      16.696  47.547  19.049  1.00  0.00    -0.213 NA
ATOM     30  N   UNL     1      17.652  47.492  21.260  1.00  0.00    -0.221 NA
ATOM     31  C   UNL     1      15.711  48.331  19.536  1.00  0.00     0.077 A 
ATOM     32  C   UNL     1      16.638  48.277  21.679  1.00  0.00     0.117 A 
ATOM     33  C   UNL     1      15.631  48.732  20.854  1.00  0.00     0.049 A 
BRANCH  31  34
ATOM     34  C   UNL     1      14.718  48.737  18.570  1.00  0.00     0.019 A 
ATOM     35  C   UNL     1      13.540  49.358  18.970  1.00  0.00     0.013 A 
ATOM     36  C   UNL     1      14.908  48.520  17.214  1.00  0.00     0.121 A 
ATOM     37  C   UNL     1      12.601  49.738  18.017  1.00  0.00     0.021 A 
ATOM     38  N   UNL     1      14.019  48.874  16.259  1.00  0.00    -0.264 NA
ATOM     39  C   UNL     1      12.887  49.475  16.686  1.00  0.00     0.111 A 
ENDBRANCH  31  34
ENDBRANCH  26  28
ENDBRANCH   2  26
TORSDOF 7
ENDMDL
MODEL 6
REMARK VINA RESULT:    -9.970      3.143     12.071
REMARK INTER + INTRA:         -14.578
REMARK INTER:                 -13.993
REMARK INTRA:                  -0.585
REMARK UNBOUND:                -0.528
REMARK SMILES Cc1ccc(NC(=O)c2ccc(CN3CCN(C)CC3)cc2)cc1Nc1nccc(-c2cccnc2)n1
REMARK SMILES IDX 5 1 24 2 23 3 2 4 4 5 3 6 1 7 6 8 8 9 7 10 9 12 10 13 22 14
REMARK SMILES IDX 11 15 21 16 12 17 13 18 14 19 15 20 20 21 16 22 19 23 17 24
REMARK SMILES IDX 18 25 25 26 26 28 37 29 27 30 30 31 28 32 29 33 31 34 32 35
REMARK SMILES IDX 36 36 33 37 35 38 34 39
REMARK H PARENT 6 11 25 27
REMARK Flexibility Score: inf
ROOT
ATOM      1  C   UNL     1      16.059  50.423  16.743  1.00  0.00     0.043 A 
ATOM      2  C   UNL     1      17.105  48.956  18.325  1.00  0.00     0.046 A 
ATOM      3  C   UNL     1      17.123  50.135  17.581  1.00  0.00     0.052 A 
ATOM      4  C   UNL     1      16.022  48.082  18.220  1.00  0.00    -0.027 A 
ATOM      5  C   UNL     1      14.978  49.568  16.627  1.00  0.00     0.026 A 
ATOM      6  C   UNL     1      14.958  48.388  17.371  1.00  0.00     0.008 A 
ATOM      7  C   UNL     1      15.976  46.811  19.005  1.00  0.00     0.046 C 
ENDROOT
BRANCH   1   8
ATOM      8  N   UNL     1      16.078  51.620  15.987  1.00  0.00    -0.322 N 
ATOM      9  O   UNL     1      15.160  50.953  13.933  1.00  0.00    -0.269 OA
ATOM     10  C   UNL     1      15.646  51.826  14.669  1.00  0.00     0.255 C 
ATOM     11  H   UNL     1      16.421  52.421  16.509  1.00  0.00     0.170 HD
BRANCH  10  12
ATOM     12  C   UNL     1      15.818  53.174  14.148  1.00  0.00     0.040 A 
ATOM     13  C   UNL     1      17.092  53.633  13.810  1.00  0.00     0.014 A 
ATOM     14  C   UNL     1      14.712  54.007  13.988  1.00  0.00     0.014 A 
ATOM     15  C   UNL     1      17.258  54.925  13.311  1.00  0.00     0.006 A 
ATOM     16  C   UNL     1      14.878  55.299  13.489  1.00  0.00     0.006 A 
ATOM     17  C   UNL     1      16.150  55.745  13.157  1.00  0.00    -0.034 A 
BRANCH  17  18
ATOM     18  C   UNL     1      16.328  57.140  12.617  1.00  0.00     0.120 C 
BRANCH  18  19
ATOM     19  N   UNL     1      15.159  57.978  12.882  1.00  0.00    -0.297 NA
ATOM     20  C   UNL     1      14.210  57.917  11.764  1.00  0.00     0.100 C 
ATOM     21  C   UNL     1      15.562  59.367  13.136  1.00  0.00     0.100 C 
ATOM     22  C   UNL     1      12.985  58.796  12.041  1.00  0.00     0.099 C 
ATOM     23  C   UNL     1      14.337  60.247  13.412  1.00  0.00     0.099 C 
ATOM     24  N   UNL     1      13.386  60.185  12.295  1.00  0.00    -0.304 NA
ATOM     25  C   UNL     1      12.218  61.022  12.562  1.00  0.00     0.105 C 
ENDBRANCH  18  19
ENDBRANCH  17  18
ENDBRANCH  10  12
ENDBRANCH   1   8
BRANCH   2  26
ATOM     26  N   UNL     1      18.189  48.662  19.181  1.00  0.00    -0.324 N 
ATOM     27  H   UNL     1      17.940  48.522  20.156  1.00  0.00     0.170 HD
BRANCH  26  28
ATOM     28  C   UNL     1      19.550  48.404  18.938  1.00  0.00     0.227 A 
ATOM     29  N   UNL     1      20.351  49.477  18.773  1.00  0.00    -0.213 NA
ATOM     30  N   UNL     1      19.923  47.109  18.892  1.00  0.00    -0.221 NA
ATOM     31  C   UNL     1      21.649  49.193  18.540  1.00  0.00     0.077 A 
ATOM     32  C   UNL     1      21.235  46.897  18.657  1.00  0.00     0.117 A 
ATOM     33  C   UNL     1      22.153  47.910  18.471  1.00  0.00     0.049 A 
BRANCH  31  34
ATOM     34  C   UNL     1      22.506  50.341  18.365  1.00  0.00     0.019 A 
ATOM     35  C   UNL     1      22.026  51.631  18.563  1.00  0.00     0.013 A 
ATOM     36  C   UNL     1      23.833  50.193  17.993  1.00  0.00     0.121 A 
ATOM     37  C   UNL     1      22.875  52.718  18.386  1.00  0.00     0.021 A 
ATOM     38  N   UNL     1      24.687  51.225  17.812  1.00  0.00    -0.264 NA
ATOM     39  C   UNL     1      24.185  52.463  18.014  1.00  0.00     0.111 A 
ENDBRANCH  31  34
ENDBRANCH  26  28
ENDBRANCH   2  26
TORSDOF 7
ENDMDL
MODEL 7
REMARK VINA RESULT:    -9.942      1.686     13.111
REMARK INTER + INTRA:         -14.538
REMARK INTER:                 -14.198
REMARK INTRA:                  -0.341
REMARK UNBOUND:                -0.528
REMARK SMILES Cc1ccc(NC(=O)c2ccc(CN3CCN(C)CC3)cc2)cc1Nc1nccc(-c2cccnc2)n1
REMARK SMILES IDX 5 1 24 2 23 3 2 4 4 5 3 6 1 7 6 8 8 9 7 10 9 12 10 13 22 14
REMARK SMILES IDX 11 15 21 16 12 17 13 18 14 19 15 20 20 21 16 22 19 23 17 24
REMARK SMILES IDX 18 25 25 26 26 28 37 29 27 30 30 31 28 32 29 33 31 34 32 35
REMARK SMILES IDX 36 36 33 37 35 38 34 39
REMARK H PARENT 6 11 25 27
REMARK Flexibility Score: inf
ROOT
ATOM      1  C   UNL     1      14.517  50.033  17.432  1.00  0.00     0.043 A 
ATOM      2  C   UNL     1      15.314  48.158  18.697  1.00  0.00     0.046 A 
ATOM      3  C   UNL     1      15.534  49.143  17.734  1.00  0.00     0.052 A 
ATOM      4  C   UNL     1      14.080  48.079  19.344  1.00  0.00    -0.027 A 
ATOM      5  C   UNL     1      13.287  49.968  18.064  1.00  0.00     0.026 A 
ATOM      6  C   UNL     1      13.067  48.984  19.027  1.00  0.00     0.008 A 
ATOM      7  C   UNL     1      13.817  47.034  20.380  1.00  0.00     0.046 C 
ENDROOT
BRANCH   1   8
ATOM      8  N   UNL     1      14.739  51.032  16.454  1.00  0.00    -0.322 N 
ATOM      9  O   UNL     1      17.052  50.887  16.078  1.00  0.00    -0.269 OA
ATOM     10  C   UNL     1      15.947  51.402  15.844  1.00  0.00     0.255 C 
ATOM     11  H   UNL     1      13.888  51.497  16.152  1.00  0.00     0.170 HD
BRANCH  10  12
ATOM     12  C   UNL     1      15.866  52.494  14.886  1.00  0.00     0.040 A 
ATOM     13  C   UNL     1      16.774  52.564  13.829  1.00  0.00     0.014 A 
ATOM     14  C   UNL     1      14.883  53.473  15.025  1.00  0.00     0.014 A 
ATOM     15  C   UNL     1      16.697  53.611  12.911  1.00  0.00     0.006 A 
ATOM     16  C   UNL     1      14.806  54.520  14.107  1.00  0.00     0.006 A 
ATOM     17  C   UNL     1      15.715  54.579  13.060  1.00  0.00    -0.034 A 
BRANCH  17  18
ATOM     18  C   UNL     1      15.630  55.709  12.069  1.00  0.00     0.120 C 
BRANCH  18  19
ATOM     19  N   UNL     1      15.028  56.904  12.657  1.00  0.00    -0.297 NA
ATOM     20  C   UNL     1      13.848  57.325  11.892  1.00  0.00     0.100 C 
ATOM     21  C   UNL     1      16.005  57.997  12.732  1.00  0.00     0.100 C 
ATOM     22  C   UNL     1      13.216  58.578  12.509  1.00  0.00     0.099 C 
ATOM     23  C   UNL     1      15.374  59.252  13.347  1.00  0.00     0.099 C 
ATOM     24  N   UNL     1      14.193  59.671  12.584  1.00  0.00    -0.304 NA
ATOM     25  C   UNL     1      13.591  60.865  13.174  1.00  0.00     0.105 C 
ENDBRANCH  18  19
ENDBRANCH  17  18
ENDBRANCH  10  12
ENDBRANCH   1   8
BRANCH   2  26
ATOM     26  N   UNL     1      16.351  47.251  19.007  1.00  0.00    -0.324 N 
ATOM     27  H   UNL     1      16.100  46.271  18.928  1.00  0.00     0.170 HD
BRANCH  26  28
ATOM     28  C   UNL     1      17.716  47.429  19.295  1.00  0.00     0.227 A 
ATOM     29  N   UNL     1      18.218  46.714  20.323  1.00  0.00    -0.213 NA
ATOM     30  N   UNL     1      18.392  48.298  18.516  1.00  0.00    -0.221 NA
ATOM     31  C   UNL     1      19.530  46.911  20.572  1.00  0.00     0.077 A 
ATOM     32  C   UNL     1      19.698  48.446  18.820  1.00  0.00     0.117 A 
ATOM     33  C   UNL     1      20.327  47.772  19.847  1.00  0.00     0.049 A 
BRANCH  31  34
ATOM     34  C   UNL     1      20.066  46.144  21.671  1.00  0.00     0.019 A 
ATOM     35  C   UNL     1      21.109  45.246  21.478  1.00  0.00     0.013 A 
ATOM     36  C   UNL     1      19.556  46.280  22.953  1.00  0.00     0.121 A 
ATOM     37  C   UNL     1      21.605  44.521  22.556  1.00  0.00     0.021 A 
ATOM     38  N   UNL     1      20.012  45.593  24.025  1.00  0.00    -0.264 NA
ATOM     39  C   UNL     1      21.026  44.730  23.798  1.00  0.00     0.111 A 
ENDBRANCH  31  34
ENDBRANCH  26  28
ENDBRANCH   2  26
TORSDOF 7
ENDMDL
