MODEL 1
REMARK VINA RESULT:    -6.890      0.000      0.000
REMARK INTER + INTRA:          -8.641
REMARK INTER:                  -8.222
REMARK INTRA:                  -0.419
REMARK UNBOUND:                -0.542
REMARK  Name = 132190620
REMARK                            x       y       z     vdW  Elec       q    Type
REMARK                         _______ _______ _______ _____ _____    ______ ____
ROOT
ATOM      1  N   LIG    1       -6.526  -8.683   0.856  0.00  0.00    -0.269 N 
ATOM      2  H   LIG    1       -6.752  -8.897  -0.078  0.00  0.00    +0.156 HD
ATOM      3  C   LIG    1       -6.500  -7.331   1.177  0.00  0.00    +0.308 C 
ATOM      4  N   LIG    1       -6.810  -6.578   0.050  0.00  0.00    -0.269 N 
ATOM      5  H   LIG    1       -6.992  -7.090  -0.772  0.00  0.00    +0.156 HD
ATOM      6  O   LIG    1       -6.246  -6.877   2.282  0.00  0.00    -0.252 OA
ENDROOT
BRANCH   4   7
ATOM      7  C   LIG    1       -6.898  -5.176  -0.066  0.00  0.00    +0.038 A 
ATOM      8  C   LIG    1       -8.163  -4.654  -0.429  0.00  0.00    +0.027 A 
ATOM      9  C   LIG    1       -8.371  -3.278  -0.566  0.00  0.00    +0.051 A 
ATOM     10  C   LIG    1       -7.298  -2.449  -0.337  0.00  0.00    +0.173 A 
ATOM     11  C   LIG    1       -6.063  -2.947   0.009  0.00  0.00    +0.174 A 
ATOM     12  O   LIG    1       -5.140  -1.963   0.186  0.00  0.00    -0.395 OA
ATOM     13  C   LIG    1       -5.957  -0.808  -0.043  0.00  0.00    +0.589 C 
ATOM     14  F   LIG    1       -5.392  -0.060  -1.022  0.00  0.00    -0.125 F 
ATOM     15  F   LIG    1       -5.971  -0.059   1.088  0.00  0.00    -0.125 F 
ATOM     16  O   LIG    1       -7.314  -1.092  -0.415  0.00  0.00    -0.395 OA
ATOM     17  C   LIG    1       -5.831  -4.302   0.152  0.00  0.00    +0.073 A 
ENDBRANCH   4   7
BRANCH   1  22
ATOM     18 CL   LIG    1       -5.838 -13.312   4.510  0.00  0.00    -0.083 Cl
ATOM     19  C   LIG    1       -5.950 -11.979   3.420  0.00  0.00    +0.053 A 
ATOM     20  C   LIG    1       -4.837 -11.470   2.742  0.00  0.00    +0.075 A 
ATOM     21  C   LIG    1       -5.015 -10.372   1.870  0.00  0.00    +0.037 A 
ATOM     22  C   LIG    1       -6.270  -9.788   1.690  0.00  0.00    +0.035 A 
ATOM     23  C   LIG    1       -7.367 -10.317   2.379  0.00  0.00    +0.025 A 
ATOM     24  C   LIG    1       -7.210 -11.408   3.235  0.00  0.00    +0.022 A 
BRANCH  20  25
ATOM     25  C   LIG    1       -3.464 -12.054   2.945  0.00  0.00    +0.419 C 
ATOM     26  F   LIG    1       -2.466 -11.236   2.512  0.00  0.00    -0.166 F 
ATOM     27  F   LIG    1       -3.297 -13.240   2.297  0.00  0.00    -0.166 F 
ATOM     28  F   LIG    1       -3.174 -12.316   4.251  0.00  0.00    -0.166 F 
ENDBRANCH  20  25
ENDBRANCH   1  22
TORSDOF 3
ENDMDL
MODEL 2
REMARK VINA RESULT:    -6.791     23.369     24.203
REMARK INTER + INTRA:          -8.524
REMARK INTER:                  -8.364
REMARK INTRA:                  -0.160
REMARK UNBOUND:                -0.542
REMARK  Name = 132190620
REMARK                            x       y       z     vdW  Elec       q    Type
REMARK                         _______ _______ _______ _____ _____    ______ ____
ROOT
ATOM      1  N   LIG    1       12.259   6.851  -0.684  0.00  0.00    -0.269 N 
ATOM      2  H   LIG    1       12.085   5.964  -1.074  0.00  0.00    +0.156 HD
ATOM      3  C   LIG    1       12.050   7.934  -1.529  0.00  0.00    +0.308 C 
ATOM      4  N   LIG    1       11.629   7.479  -2.774  0.00  0.00    -0.269 N 
ATOM      5  H   LIG    1       11.548   6.502  -2.869  0.00  0.00    +0.156 HD
ATOM      6  O   LIG    1       12.209   9.105  -1.222  0.00  0.00    -0.252 OA
ENDROOT
BRANCH   4   7
ATOM      7  C   LIG    1       11.304   8.238  -3.917  0.00  0.00    +0.038 A 
ATOM      8  C   LIG    1       12.352   9.005  -4.480  0.00  0.00    +0.027 A 
ATOM      9  C   LIG    1       12.148   9.790  -5.619  0.00  0.00    +0.051 A 
ATOM     10  C   LIG    1       10.890   9.789  -6.173  0.00  0.00    +0.173 A 
ATOM     11  C   LIG    1        9.864   9.052  -5.630  0.00  0.00    +0.174 A 
ATOM     12  O   LIG    1        8.701   9.193  -6.324  0.00  0.00    -0.395 OA
ATOM     13  C   LIG    1        9.142  10.059  -7.378  0.00  0.00    +0.589 C 
ATOM     14  F   LIG    1        8.353  11.160  -7.396  0.00  0.00    -0.125 F 
ATOM     15  F   LIG    1        8.976   9.416  -8.561  0.00  0.00    -0.125 F 
ATOM     16  O   LIG    1       10.511  10.481  -7.280  0.00  0.00    -0.395 OA
ATOM     17  C   LIG    1       10.037   8.267  -4.505  0.00  0.00    +0.073 A 
ENDBRANCH   4   7
BRANCH   1  22
ATOM     18 CL   LIG    1       14.206   6.477   4.913  0.00  0.00    -0.083 Cl
ATOM     19  C   LIG    1       13.616   6.674   3.304  0.00  0.00    +0.053 A 
ATOM     20  C   LIG    1       12.890   7.802   2.904  0.00  0.00    +0.075 A 
ATOM     21  C   LIG    1       12.438   7.882   1.568  0.00  0.00    +0.037 A 
ATOM     22  C   LIG    1       12.691   6.855   0.656  0.00  0.00    +0.035 A 
ATOM     23  C   LIG    1       13.419   5.738   1.082  0.00  0.00    +0.025 A 
ATOM     24  C   LIG    1       13.882   5.649   2.394  0.00  0.00    +0.022 A 
BRANCH  20  25
ATOM     25  C   LIG    1       12.569   8.907   3.875  0.00  0.00    +0.419 C 
ATOM     26  F   LIG    1       13.670   9.402   4.504  0.00  0.00    -0.166 F 
ATOM     27  F   LIG    1       11.711   8.512   4.856  0.00  0.00    -0.166 F 
ATOM     28  F   LIG    1       11.973   9.986   3.291  0.00  0.00    -0.166 F 
ENDBRANCH  20  25
ENDBRANCH   1  22
TORSDOF 3
ENDMDL
MODEL 3
REMARK VINA RESULT:    -6.603     15.373     15.815
REMARK INTER + INTRA:          -8.304
REMARK INTER:                  -7.908
REMARK INTRA:                  -0.396
REMARK UNBOUND:                -0.542
REMARK  Name = 132190620
REMARK                            x       y       z     vdW  Elec       q    Type
REMARK                         _______ _______ _______ _____ _____    ______ ____
ROOT
ATOM      1  N   LIG    1        2.495  -8.360 -10.877  0.00  0.00    -0.269 N 
ATOM      2  H   LIG    1        1.638  -8.554 -10.432  0.00  0.00    +0.156 HD
ATOM      3  C   LIG    1        2.519  -7.217 -11.668  0.00  0.00    +0.308 C 
ATOM      4  N   LIG    1        1.271  -6.604 -11.640  0.00  0.00    -0.269 N 
ATOM      5  H   LIG    1        0.586  -7.050 -11.090  0.00  0.00    +0.156 HD
ATOM      6  O   LIG    1        3.490  -6.816 -12.291  0.00  0.00    -0.252 OA
ENDROOT
BRANCH   4   7
ATOM      7  C   LIG    1        0.862  -5.426 -12.296  0.00  0.00    +0.038 A 
ATOM      8  C   LIG    1        0.036  -5.595 -13.433  0.00  0.00    +0.027 A 
ATOM      9  C   LIG    1       -0.437  -4.498 -14.159  0.00  0.00    +0.051 A 
ATOM     10  C   LIG    1       -0.069  -3.245 -13.727  0.00  0.00    +0.173 A 
ATOM     11  C   LIG    1        0.739  -3.071 -12.628  0.00  0.00    +0.174 A 
ATOM     12  O   LIG    1        0.988  -1.757 -12.372  0.00  0.00    -0.395 OA
ATOM     13  C   LIG    1        0.205  -1.148 -13.407  0.00  0.00    +0.589 C 
ATOM     14  F   LIG    1        1.005  -0.332 -14.135  0.00  0.00    -0.125 F 
ATOM     15  F   LIG    1       -0.749  -0.377 -12.827  0.00  0.00    -0.125 F 
ATOM     16  O   LIG    1       -0.438  -2.069 -14.300  0.00  0.00    -0.395 OA
ATOM     17  C   LIG    1        1.220  -4.138 -11.892  0.00  0.00    +0.073 A 
ENDBRANCH   4   7
BRANCH   1  22
ATOM     18 CL   LIG    1        6.616 -12.531  -9.940  0.00  0.00    -0.083 Cl
ATOM     19  C   LIG    1        5.481 -11.255 -10.188  0.00  0.00    +0.053 A 
ATOM     20  C   LIG    1        5.749  -9.931  -9.820  0.00  0.00    +0.075 A 
ATOM     21  C   LIG    1        4.763  -8.946 -10.055  0.00  0.00    +0.037 A 
ATOM     22  C   LIG    1        3.534  -9.277 -10.629  0.00  0.00    +0.035 A 
ATOM     23  C   LIG    1        3.292 -10.607 -10.988  0.00  0.00    +0.025 A 
ATOM     24  C   LIG    1        4.259 -11.589 -10.774  0.00  0.00    +0.022 A 
BRANCH  20  25
ATOM     25  C   LIG    1        7.050  -9.552  -9.164  0.00  0.00    +0.419 C 
ATOM     26  F   LIG    1        7.008  -8.333  -8.560  0.00  0.00    -0.166 F 
ATOM     27  F   LIG    1        8.089  -9.508 -10.044  0.00  0.00    -0.166 F 
ATOM     28  F   LIG    1        7.442 -10.423  -8.191  0.00  0.00    -0.166 F 
ENDBRANCH  20  25
ENDBRANCH   1  22
TORSDOF 3
ENDMDL
MODEL 4
REMARK VINA RESULT:    -6.531      3.345      9.379
REMARK INTER + INTRA:          -8.218
REMARK INTER:                  -7.760
REMARK INTRA:                  -0.458
REMARK UNBOUND:                -0.542
REMARK  Name = 132190620
REMARK                            x       y       z     vdW  Elec       q    Type
REMARK                         _______ _______ _______ _____ _____    ______ ____
ROOT
ATOM      1  N   LIG    1       -6.815  -6.331   0.028  0.00  0.00    -0.269 N 
ATOM      2  H   LIG    1       -7.191  -6.839  -0.726  0.00  0.00    +0.156 HD
ATOM      3  C   LIG    1       -6.357  -7.088   1.100  0.00  0.00    +0.308 C 
ATOM      4  N   LIG    1       -6.554  -8.439   0.834  0.00  0.00    -0.269 N 
ATOM      5  H   LIG    1       -6.972  -8.649  -0.034  0.00  0.00    +0.156 HD
ATOM      6  O   LIG    1       -5.858  -6.635   2.118  0.00  0.00    -0.252 OA
ENDROOT
BRANCH   4   7
ATOM      7  C   LIG    1       -6.233  -9.545   1.646  0.00  0.00    +0.038 A 
ATOM      8  C   LIG    1       -7.314 -10.165   2.319  0.00  0.00    +0.027 A 
ATOM      9  C   LIG    1       -7.116 -11.275   3.146  0.00  0.00    +0.051 A 
ATOM     10  C   LIG    1       -5.830 -11.744   3.281  0.00  0.00    +0.173 A 
ATOM     11  C   LIG    1       -4.773 -11.145   2.636  0.00  0.00    +0.174 A 
ATOM     12  O   LIG    1       -3.588 -11.758   2.905  0.00  0.00    -0.395 OA
ATOM     13  C   LIG    1       -4.044 -12.825   3.747  0.00  0.00    +0.589 C 
ATOM     14  F   LIG    1       -3.369 -12.772   4.921  0.00  0.00    -0.125 F 
ATOM     15  F   LIG    1       -3.738 -14.004   3.151  0.00  0.00    -0.125 F 
ATOM     16  O   LIG    1       -5.451 -12.811   4.031  0.00  0.00    -0.395 OA
ATOM     17  C   LIG    1       -4.940 -10.047   1.813  0.00  0.00    +0.073 A 
ENDBRANCH   4   7
BRANCH   1  22
ATOM     18 CL   LIG    1       -7.196  -0.456  -0.744  0.00  0.00    -0.083 Cl
ATOM     19  C   LIG    1       -7.000  -2.150  -0.485  0.00  0.00    +0.053 A 
ATOM     20  C   LIG    1       -5.774  -2.715  -0.115  0.00  0.00    +0.075 A 
ATOM     21  C   LIG    1       -5.698  -4.114   0.073  0.00  0.00    +0.037 A 
ATOM     22  C   LIG    1       -6.814  -4.930  -0.119  0.00  0.00    +0.035 A 
ATOM     23  C   LIG    1       -8.027  -4.340  -0.489  0.00  0.00    +0.025 A 
ATOM     24  C   LIG    1       -8.122  -2.960  -0.666  0.00  0.00    +0.022 A 
BRANCH  20  25
ATOM     25  C   LIG    1       -4.544  -1.865   0.062  0.00  0.00    +0.419 C 
ATOM     26  F   LIG    1       -4.695  -0.899   1.010  0.00  0.00    -0.166 F 
ATOM     27  F   LIG    1       -4.180  -1.224  -1.083  0.00  0.00    -0.166 F 
ATOM     28  F   LIG    1       -3.443  -2.574   0.441  0.00  0.00    -0.166 F 
ENDBRANCH  20  25
ENDBRANCH   1  22
TORSDOF 3
ENDMDL
MODEL 5
REMARK VINA RESULT:    -6.471      8.935     13.947
REMARK INTER + INTRA:          -8.148
REMARK INTER:                  -7.940
REMARK INTRA:                  -0.208
REMARK UNBOUND:                -0.542
REMARK  Name = 132190620
REMARK                            x       y       z     vdW  Elec       q    Type
REMARK                         _______ _______ _______ _____ _____    ______ ____
ROOT
ATOM      1  N   LIG    1       -5.944   3.799  -0.457  0.00  0.00    -0.269 N 
ATOM      2  H   LIG    1       -6.753   3.354  -0.116  0.00  0.00    +0.156 HD
ATOM      3  C   LIG    1       -4.861   2.968  -0.719  0.00  0.00    +0.308 C 
ATOM      4  N   LIG    1       -5.200   1.653  -0.418  0.00  0.00    -0.269 N 
ATOM      5  H   LIG    1       -6.114   1.512  -0.078  0.00  0.00    +0.156 HD
ATOM      6  O   LIG    1       -3.780   3.338  -1.149  0.00  0.00    -0.252 OA
ENDROOT
BRANCH   4   7
ATOM      7  C   LIG    1       -4.403   0.497  -0.538  0.00  0.00    +0.038 A 
ATOM      8  C   LIG    1       -4.659  -0.542   0.390  0.00  0.00    +0.027 A 
ATOM      9  C   LIG    1       -3.936  -1.738   0.361  0.00  0.00    +0.051 A 
ATOM     10  C   LIG    1       -2.965  -1.869  -0.603  0.00  0.00    +0.173 A 
ATOM     11  C   LIG    1       -2.704  -0.863  -1.505  0.00  0.00    +0.174 A 
ATOM     12  O   LIG    1       -1.705  -1.190  -2.370  0.00  0.00    -0.395 OA
ATOM     13  C   LIG    1       -1.417  -2.523  -1.928  0.00  0.00    +0.589 C 
ATOM     14  F   LIG    1       -0.099  -2.608  -1.627  0.00  0.00    -0.125 F 
ATOM     15  F   LIG    1       -1.660  -3.378  -2.953  0.00  0.00    -0.125 F 
ATOM     16  O   LIG    1       -2.173  -2.958  -0.787  0.00  0.00    -0.395 OA
ATOM     17  C   LIG    1       -3.404   0.329  -1.499  0.00  0.00    +0.073 A 
ENDBRANCH   4   7
BRANCH   1  22
ATOM     18 CL   LIG    1       -6.618   9.621  -1.412  0.00  0.00    -0.083 Cl
ATOM     19  C   LIG    1       -6.360   7.950  -1.068  0.00  0.00    +0.053 A 
ATOM     20  C   LIG    1       -5.337   7.508  -0.221  0.00  0.00    +0.075 A 
ATOM     21  C   LIG    1       -5.192   6.120   0.004  0.00  0.00    +0.037 A 
ATOM     22  C   LIG    1       -6.036   5.195  -0.614  0.00  0.00    +0.035 A 
ATOM     23  C   LIG    1       -7.051   5.664  -1.456  0.00  0.00    +0.025 A 
ATOM     24  C   LIG    1       -7.215   7.031  -1.679  0.00  0.00    +0.022 A 
BRANCH  20  25
ATOM     25  C   LIG    1       -4.387   8.479   0.428  0.00  0.00    +0.419 C 
ATOM     26  F   LIG    1       -4.998   9.310   1.316  0.00  0.00    -0.166 F 
ATOM     27  F   LIG    1       -3.755   9.279  -0.475  0.00  0.00    -0.166 F 
ATOM     28  F   LIG    1       -3.388   7.873   1.131  0.00  0.00    -0.166 F 
ENDBRANCH  20  25
ENDBRANCH   1  22
TORSDOF 3
ENDMDL
