REMARK SMILES O=C(Nc1ccc2c(c1)OC(F)(F)O2)Nc1ccc(Cl)c(C(F)(F)F)c1
REMARK SMILES IDX 20 1 16 2 21 3 26 4 17 5 19 6 18 7 22 8 23 9 24 10 25 11
REMARK SMILES IDX 15 12 2 13 1 15 3 16 4 18 9 19 5 20 8 21 6 22 10 23 7 24
REMARK SMILES IDX 11 25 14 26 12 27 13 28
REMARK H PARENT 15 14 3 17
REMARK Flexibility Score: inf
ROOT
ATOM      1  Cl  UNL     1     104.633  -5.343   2.328  1.00  0.00    -0.084 Cl
ATOM      2  C   UNL     1     106.600  -1.284   2.536  1.00  0.00     0.043 A 
ATOM      3  C   UNL     1     104.795  -2.685   1.750  1.00  0.00     0.076 A 
ATOM      4  C   UNL     1     105.412  -1.436   1.822  1.00  0.00     0.040 A 
ATOM      5  C   UNL     1     107.173  -2.382   3.178  1.00  0.00     0.028 A 
ATOM      6  C   UNL     1     105.368  -3.782   2.393  1.00  0.00     0.053 A 
ATOM      7  C   UNL     1     106.557  -3.631   3.107  1.00  0.00     0.023 A 
ENDROOT
BRANCH   3   8
ATOM      8  C   UNL     1     103.523  -2.806   0.977  1.00  0.00     0.417 C 
ATOM      9  F   UNL     1     103.132  -1.620   0.427  1.00  0.00    -0.166 F 
ATOM     10  F   UNL     1     103.598  -3.687  -0.062  1.00  0.00    -0.166 F 
ATOM     11  F   UNL     1     102.466  -3.229   1.730  1.00  0.00    -0.166 F 
ENDBRANCH   3   8
BRANCH   2  12
ATOM     12  N   UNL     1     107.226  -0.017   2.607  1.00  0.00    -0.308 N 
ATOM     13  C   UNL     1     107.026   0.992   3.562  1.00  0.00     0.323 C 
ATOM     14  H   UNL     1     107.902   0.177   1.873  1.00  0.00     0.171 HD
ATOM     15  O   UNL     1     106.252   0.928   4.512  1.00  0.00    -0.248 OA
ATOM     16  N   UNL     1     107.852   2.105   3.270  1.00  0.00    -0.308 N 
ATOM     17  H   UNL     1     108.444   2.016   2.448  1.00  0.00     0.171 HD
BRANCH  16  18
ATOM     18  C   UNL     1     107.963   3.312   3.961  1.00  0.00     0.046 A 
ATOM     19  C   UNL     1     107.127   4.381   3.629  1.00  0.00     0.077 A 
ATOM     20  C   UNL     1     108.917   3.441   4.987  1.00  0.00     0.030 A 
ATOM     21  C   UNL     1     107.274   5.554   4.340  1.00  0.00     0.174 A 
ATOM     22  C   UNL     1     109.046   4.640   5.693  1.00  0.00     0.053 A 
ATOM     23  O   UNL     1     106.552   6.694   4.158  1.00  0.00    -0.395 OA
ATOM     24  C   UNL     1     108.208   5.680   5.346  1.00  0.00     0.172 A 
ATOM     25  C   UNL     1     107.144   7.536   5.157  1.00  0.00     0.586 C 
ATOM     26  O   UNL     1     108.189   6.915   5.918  1.00  0.00    -0.395 OA
ATOM     27  F   UNL     1     106.171   7.945   6.010  1.00  0.00    -0.125 F 
ATOM     28  F   UNL     1     107.647   8.640   4.551  1.00  0.00    -0.125 F 
ENDBRANCH  16  18
ENDBRANCH   2  12
TORSDOF 3
