MODEL 1
REMARK VINA RESULT:    -7.950      0.000      0.000
REMARK INTER + INTRA:         -11.599
REMARK INTER:                 -10.647
REMARK INTRA:                  -0.952
REMARK UNBOUND:                -0.861
REMARK SMILES CNC(=O)c1cc(Oc2ccc(NC(=O)Nc3ccc(Cl)c(C(F)(F)F)c3)cc2)ccn1
REMARK SMILES IDX 12 1 9 2 11 3 28 4 10 5 29 6 13 7 16 8 14 9 15 11 17 13
REMARK SMILES IDX 21 14 20 15 22 16 19 17 27 18 18 19 23 20 24 21 25 22 26 23
REMARK SMILES IDX 8 24 7 25 6 26 30 27 5 28 31 29 32 30 3 31 4 32 2 33 1 34
REMARK H PARENT 16 10 13 12 2 35
REMARK Flexibility Score: inf
ROOT
ATOM      1  C   UNL     1      83.057   0.002  11.445  1.00  0.00     0.043 A 
ATOM      2  C   UNL     1      81.224   0.432   9.413  1.00  0.00     0.127 A 
ATOM      3  C   UNL     1      82.700   1.300  11.118  1.00  0.00     0.030 A 
ATOM      4  C   UNL     1      82.518  -1.085  10.777  1.00  0.00     0.030 A 
ATOM      5  C   UNL     1      81.776   1.516  10.095  1.00  0.00     0.049 A 
ATOM      6  C   UNL     1      81.594  -0.868   9.754  1.00  0.00     0.049 A 
ENDROOT
BRANCH   1   7
ATOM      7  N   UNL     1      83.993  -0.218  12.483  1.00  0.00    -0.308 N 
ATOM      8  N   UNL     1      85.950  -0.360  13.701  1.00  0.00    -0.308 N 
ATOM      9  C   UNL     1      85.383  -0.020  12.449  1.00  0.00     0.323 C 
ATOM     10  H   UNL     1      85.299  -0.684  14.411  1.00  0.00     0.171 HD
ATOM     11  O   UNL     1      86.018   0.388  11.481  1.00  0.00    -0.248 OA
ATOM     12  H   UNL     1      83.603  -0.560  13.357  1.00  0.00     0.171 HD
BRANCH   8  13
ATOM     13  C   UNL     1      87.289  -0.311  14.092  1.00  0.00     0.043 A 
ATOM     14  Cl  UNL     1      91.620  -0.193  15.363  1.00  0.00    -0.084 Cl
ATOM     15  C   UNL     1      89.965  -0.213  14.876  1.00  0.00     0.053 A 
ATOM     16  C   UNL     1      89.247   0.968  14.699  1.00  0.00     0.076 A 
ATOM     17  C   UNL     1      89.345  -1.445  14.662  1.00  0.00     0.023 A 
ATOM     18  C   UNL     1      87.908   0.921  14.307  1.00  0.00     0.040 A 
ATOM     19  C   UNL     1      88.007  -1.493  14.270  1.00  0.00     0.028 A 
BRANCH  16  20
ATOM     20  C   UNL     1      89.874   2.308  14.920  1.00  0.00     0.417 C 
ATOM     21  F   UNL     1      88.995   3.346  14.808  1.00  0.00    -0.166 F 
ATOM     22  F   UNL     1      90.438   2.446  16.154  1.00  0.00    -0.166 F 
ATOM     23  F   UNL     1      90.870   2.571  14.027  1.00  0.00    -0.166 F 
ENDBRANCH  16  20
ENDBRANCH   8  13
ENDBRANCH   1   7
BRANCH   2  24
ATOM     24  O   UNL     1      80.324   0.644   8.414  1.00  0.00    -0.457 OA
BRANCH  24  25
ATOM     25  C   UNL     1      79.171   1.344   8.724  1.00  0.00     0.131 A 
ATOM     26  C   UNL     1      78.834   2.452   7.978  1.00  0.00     0.081 A 
ATOM     27  C   UNL     1      78.385   0.915   9.772  1.00  0.00     0.067 A 
ATOM     28  C   UNL     1      77.669   3.117   8.328  1.00  0.00     0.131 A 
ATOM     29  C   UNL     1      77.240   1.648  10.042  1.00  0.00     0.116 A 
ATOM     30  N   UNL     1      76.861   2.743   9.344  1.00  0.00    -0.251 NA
BRANCH  28  31
ATOM     31  C   UNL     1      77.247   4.294   7.588  1.00  0.00     0.269 C 
ATOM     32  O   UNL     1      76.162   4.848   7.846  1.00  0.00    -0.268 OA
ATOM     33  N   UNL     1      78.121   4.777   6.607  1.00  0.00    -0.354 N 
ATOM     34  C   UNL     1      77.855   5.950   5.805  1.00  0.00     0.143 C 
ATOM     35  H   UNL     1      79.008   4.301   6.466  1.00  0.00     0.163 HD
ENDBRANCH  28  31
ENDBRANCH  24  25
ENDBRANCH   2  24
TORSDOF 6
ENDMDL
MODEL 2
REMARK VINA RESULT:    -7.808      2.136      2.582
REMARK INTER + INTRA:         -11.407
REMARK INTER:                 -10.963
REMARK INTRA:                  -0.444
REMARK UNBOUND:                -0.861
REMARK SMILES CNC(=O)c1cc(Oc2ccc(NC(=O)Nc3ccc(Cl)c(C(F)(F)F)c3)cc2)ccn1
REMARK SMILES IDX 12 1 9 2 11 3 28 4 10 5 29 6 13 7 16 8 14 9 15 11 17 13
REMARK SMILES IDX 21 14 20 15 22 16 19 17 27 18 18 19 23 20 24 21 25 22 26 23
REMARK SMILES IDX 8 24 7 25 6 26 30 27 5 28 31 29 32 30 3 31 4 32 2 33 1 34
REMARK H PARENT 16 10 13 12 2 35
REMARK Flexibility Score: inf
ROOT
ATOM      1  C   UNL     1      82.862   1.583  10.869  1.00  0.00     0.043 A 
ATOM      2  C   UNL     1      80.599   0.951   9.401  1.00  0.00     0.127 A 
ATOM      3  C   UNL     1      81.715   1.177  11.532  1.00  0.00     0.030 A 
ATOM      4  C   UNL     1      82.900   1.682   9.487  1.00  0.00     0.030 A 
ATOM      5  C   UNL     1      80.576   0.858  10.793  1.00  0.00     0.049 A 
ATOM      6  C   UNL     1      81.760   1.363   8.749  1.00  0.00     0.049 A 
ENDROOT
BRANCH   1   7
ATOM      7  N   UNL     1      84.017   1.906  11.618  1.00  0.00    -0.308 N 
ATOM      8  N   UNL     1      85.985   1.763  12.819  1.00  0.00    -0.308 N 
ATOM      9  C   UNL     1      84.990   1.031  12.126  1.00  0.00     0.323 C 
ATOM     10  H   UNL     1      85.856   2.770  12.848  1.00  0.00     0.171 HD
ATOM     11  O   UNL     1      84.986  -0.189  11.993  1.00  0.00    -0.248 OA
ATOM     12  H   UNL     1      84.152   2.896  11.807  1.00  0.00     0.171 HD
BRANCH   8  13
ATOM     13  C   UNL     1      87.122   1.284  13.472  1.00  0.00     0.043 A 
ATOM     14  Cl  UNL     1      90.816  -0.224  15.586  1.00  0.00    -0.084 Cl
ATOM     15  C   UNL     1      89.395   0.329  14.776  1.00  0.00     0.053 A 
ATOM     16  C   UNL     1      88.452  -0.566  14.273  1.00  0.00     0.076 A 
ATOM     17  C   UNL     1      89.203   1.703  14.626  1.00  0.00     0.023 A 
ATOM     18  C   UNL     1      87.315  -0.089  13.621  1.00  0.00     0.040 A 
ATOM     19  C   UNL     1      88.065   2.181  13.974  1.00  0.00     0.028 A 
BRANCH  16  20
ATOM     20  C   UNL     1      88.624  -2.045  14.412  1.00  0.00     0.417 C 
ATOM     21  F   UNL     1      89.861  -2.486  14.040  1.00  0.00    -0.166 F 
ATOM     22  F   UNL     1      88.451  -2.494  15.688  1.00  0.00    -0.166 F 
ATOM     23  F   UNL     1      87.737  -2.746  13.649  1.00  0.00    -0.166 F 
ENDBRANCH  16  20
ENDBRANCH   8  13
ENDBRANCH   1   7
BRANCH   2  24
ATOM     24  O   UNL     1      79.486   0.643   8.680  1.00  0.00    -0.457 OA
BRANCH  24  25
ATOM     25  C   UNL     1      78.448   1.559   8.675  1.00  0.00     0.131 A 
ATOM     26  C   UNL     1      78.534   2.670   7.863  1.00  0.00     0.081 A 
ATOM     27  C   UNL     1      77.352   1.339   9.480  1.00  0.00     0.067 A 
ATOM     28  C   UNL     1      77.469   3.556   7.893  1.00  0.00     0.131 A 
ATOM     29  C   UNL     1      76.339   2.284   9.437  1.00  0.00     0.116 A 
ATOM     30  N   UNL     1      76.370   3.391   8.662  1.00  0.00    -0.251 NA
BRANCH  28  31
ATOM     31  C   UNL     1      77.486   4.750   7.066  1.00  0.00     0.269 C 
ATOM     32  O   UNL     1      78.540   5.127   6.520  1.00  0.00    -0.268 OA
ATOM     33  N   UNL     1      76.272   5.428   6.900  1.00  0.00    -0.354 N 
ATOM     34  C   UNL     1      76.122   6.616   6.090  1.00  0.00     0.143 C 
ATOM     35  H   UNL     1      75.439   5.053   7.345  1.00  0.00     0.163 HD
ENDBRANCH  28  31
ENDBRANCH  24  25
ENDBRANCH   2  24
TORSDOF 6
ENDMDL
MODEL 3
REMARK VINA RESULT:    -7.707      1.941      2.552
REMARK INTER + INTRA:         -11.271
REMARK INTER:                 -10.308
REMARK INTRA:                  -0.963
REMARK UNBOUND:                -0.861
REMARK SMILES CNC(=O)c1cc(Oc2ccc(NC(=O)Nc3ccc(Cl)c(C(F)(F)F)c3)cc2)ccn1
REMARK SMILES IDX 12 1 9 2 11 3 28 4 10 5 29 6 13 7 16 8 14 9 15 11 17 13
REMARK SMILES IDX 21 14 20 15 22 16 19 17 27 18 18 19 23 20 24 21 25 22 26 23
REMARK SMILES IDX 8 24 7 25 6 26 30 27 5 28 31 29 32 30 3 31 4 32 2 33 1 34
REMARK H PARENT 16 10 13 12 2 35
REMARK Flexibility Score: inf
ROOT
ATOM      1  C   UNL     1      82.953  -0.002  11.357  1.00  0.00     0.043 A 
ATOM      2  C   UNL     1      81.042   0.366   9.385  1.00  0.00     0.127 A 
ATOM      3  C   UNL     1      82.370  -1.110  10.763  1.00  0.00     0.030 A 
ATOM      4  C   UNL     1      82.600   1.286  10.986  1.00  0.00     0.030 A 
ATOM      5  C   UNL     1      81.409  -0.924   9.769  1.00  0.00     0.049 A 
ATOM      6  C   UNL     1      81.638   1.470   9.993  1.00  0.00     0.049 A 
ENDROOT
BRANCH   1   7
ATOM      7  N   UNL     1      83.929  -0.189  12.364  1.00  0.00    -0.308 N 
ATOM      8  N   UNL     1      85.937  -0.410  13.482  1.00  0.00    -0.308 N 
ATOM      9  C   UNL     1      85.326  -0.186  12.225  1.00  0.00     0.323 C 
ATOM     10  H   UNL     1      85.305  -0.537  14.267  1.00  0.00     0.171 HD
ATOM     11  O   UNL     1      85.934  -0.014  11.173  1.00  0.00    -0.248 OA
ATOM     12  H   UNL     1      83.565  -0.344  13.300  1.00  0.00     0.171 HD
BRANCH   8  13
ATOM     13  C   UNL     1      87.297  -0.484  13.788  1.00  0.00     0.043 A 
ATOM     14  Cl  UNL     1      91.693  -0.682  14.798  1.00  0.00    -0.084 Cl
ATOM     15  C   UNL     1      90.015  -0.628  14.400  1.00  0.00     0.053 A 
ATOM     16  C   UNL     1      89.422  -1.621  13.622  1.00  0.00     0.076 A 
ATOM     17  C   UNL     1      89.249   0.438  14.872  1.00  0.00     0.023 A 
ATOM     18  C   UNL     1      88.062  -1.549  13.315  1.00  0.00     0.040 A 
ATOM     19  C   UNL     1      87.890   0.511  14.567  1.00  0.00     0.028 A 
BRANCH  16  20
ATOM     20  C   UNL     1      90.208  -2.779  13.095  1.00  0.00     0.417 C 
ATOM     21  F   UNL     1      90.892  -3.457  14.063  1.00  0.00    -0.166 F 
ATOM     22  F   UNL     1      89.440  -3.719  12.473  1.00  0.00    -0.166 F 
ATOM     23  F   UNL     1      91.144  -2.400  12.179  1.00  0.00    -0.166 F 
ENDBRANCH  16  20
ENDBRANCH   8  13
ENDBRANCH   1   7
BRANCH   2  24
ATOM     24  O   UNL     1      80.102   0.546   8.417  1.00  0.00    -0.457 OA
BRANCH  24  25
ATOM     25  C   UNL     1      78.999   1.323   8.728  1.00  0.00     0.131 A 
ATOM     26  C   UNL     1      78.725   2.440   7.969  1.00  0.00     0.081 A 
ATOM     27  C   UNL     1      78.199   0.960   9.791  1.00  0.00     0.067 A 
ATOM     28  C   UNL     1      77.609   3.183   8.321  1.00  0.00     0.131 A 
ATOM     29  C   UNL     1      77.106   1.769  10.061  1.00  0.00     0.116 A 
ATOM     30  N   UNL     1      76.790   2.875   9.351  1.00  0.00    -0.251 NA
BRANCH  28  31
ATOM     31  C   UNL     1      77.255   4.374   7.568  1.00  0.00     0.269 C 
ATOM     32  O   UNL     1      76.238   5.030   7.863  1.00  0.00    -0.268 OA
ATOM     33  N   UNL     1      78.116   4.750   6.530  1.00  0.00    -0.354 N 
ATOM     34  C   UNL     1      77.913   5.922   5.708  1.00  0.00     0.143 C 
ATOM     35  H   UNL     1      78.948   4.193   6.359  1.00  0.00     0.163 HD
ENDBRANCH  28  31
ENDBRANCH  24  25
ENDBRANCH   2  24
TORSDOF 6
ENDMDL
MODEL 4
REMARK VINA RESULT:    -7.703      6.558     10.904
REMARK INTER + INTRA:         -11.266
REMARK INTER:                 -10.264
REMARK INTRA:                  -1.002
REMARK UNBOUND:                -0.861
REMARK SMILES CNC(=O)c1cc(Oc2ccc(NC(=O)Nc3ccc(Cl)c(C(F)(F)F)c3)cc2)ccn1
REMARK SMILES IDX 12 1 9 2 11 3 28 4 10 5 29 6 13 7 16 8 14 9 15 11 17 13
REMARK SMILES IDX 21 14 20 15 22 16 19 17 27 18 18 19 23 20 24 21 25 22 26 23
REMARK SMILES IDX 8 24 7 25 6 26 30 27 5 28 31 29 32 30 3 31 4 32 2 33 1 34
REMARK H PARENT 16 10 13 12 2 35
REMARK Flexibility Score: inf
ROOT
ATOM      1  C   UNL     1      85.742   2.900  10.488  1.00  0.00     0.043 A 
ATOM      2  C   UNL     1      86.326   0.275  11.154  1.00  0.00     0.127 A 
ATOM      3  C   UNL     1      84.727   2.075  10.947  1.00  0.00     0.030 A 
ATOM      4  C   UNL     1      87.042   2.439  10.354  1.00  0.00     0.030 A 
ATOM      5  C   UNL     1      85.022   0.754  11.283  1.00  0.00     0.049 A 
ATOM      6  C   UNL     1      87.335   1.117  10.690  1.00  0.00     0.049 A 
ENDROOT
BRANCH   1   7
ATOM      7  N   UNL     1      85.444   4.240  10.148  1.00  0.00    -0.308 N 
ATOM      8  N   UNL     1      85.026   6.508  10.260  1.00  0.00    -0.308 N 
ATOM      9  C   UNL     1      85.340   5.347  11.005  1.00  0.00     0.323 C 
ATOM     10  H   UNL     1      84.925   6.379   9.257  1.00  0.00     0.171 HD
ATOM     11  O   UNL     1      85.498   5.318  12.222  1.00  0.00    -0.248 OA
ATOM     12  H   UNL     1      85.288   4.414   9.159  1.00  0.00     0.171 HD
BRANCH   8  13
ATOM     13  C   UNL     1      84.835   7.813  10.719  1.00  0.00     0.043 A 
ATOM     14  Cl  UNL     1      84.253  12.042  12.190  1.00  0.00    -0.084 Cl
ATOM     15  C   UNL     1      84.453  10.419  11.637  1.00  0.00     0.053 A 
ATOM     16  C   UNL     1      83.512   9.433  11.928  1.00  0.00     0.076 A 
ATOM     17  C   UNL     1      85.586  10.102  10.887  1.00  0.00     0.023 A 
ATOM     18  C   UNL     1      83.702   8.129  11.469  1.00  0.00     0.040 A 
ATOM     19  C   UNL     1      85.777   8.799  10.428  1.00  0.00     0.028 A 
BRANCH  16  20
ATOM     20  C   UNL     1      82.286   9.731  12.730  1.00  0.00     0.417 C 
ATOM     21  F   UNL     1      81.530   8.627  13.000  1.00  0.00    -0.166 F 
ATOM     22  F   UNL     1      82.555  10.288  13.946  1.00  0.00    -0.166 F 
ATOM     23  F   UNL     1      81.450  10.605  12.100  1.00  0.00    -0.166 F 
ENDBRANCH  16  20
ENDBRANCH   8  13
ENDBRANCH   1   7
BRANCH   2  24
ATOM     24  O   UNL     1      86.612  -1.016  11.480  1.00  0.00    -0.457 OA
BRANCH  24  25
ATOM     25  C   UNL     1      87.317  -1.243  12.650  1.00  0.00     0.131 A 
ATOM     26  C   UNL     1      88.579  -1.791  12.580  1.00  0.00     0.081 A 
ATOM     27  C   UNL     1      86.740  -0.914  13.858  1.00  0.00     0.067 A 
ATOM     28  C   UNL     1      89.244  -1.996  13.779  1.00  0.00     0.131 A 
ATOM     29  C   UNL     1      87.486  -1.159  14.999  1.00  0.00     0.116 A 
ATOM     30  N   UNL     1      88.728  -1.694  14.991  1.00  0.00    -0.251 NA
BRANCH  28  31
ATOM     31  C   UNL     1      90.578  -2.571  13.788  1.00  0.00     0.269 C 
ATOM     32  O   UNL     1      90.744  -3.789  13.593  1.00  0.00    -0.268 OA
ATOM     33  N   UNL     1      91.648  -1.692  14.000  1.00  0.00    -0.354 N 
ATOM     34  C   UNL     1      93.033  -2.106  14.013  1.00  0.00     0.143 C 
ATOM     35  H   UNL     1      91.450  -0.703  14.121  1.00  0.00     0.163 HD
ENDBRANCH  28  31
ENDBRANCH  24  25
ENDBRANCH   2  24
TORSDOF 6
ENDMDL
MODEL 5
REMARK VINA RESULT:    -7.620      1.320      2.044
REMARK INTER + INTRA:         -11.153
REMARK INTER:                 -10.146
REMARK INTRA:                  -1.007
REMARK UNBOUND:                -0.861
REMARK SMILES CNC(=O)c1cc(Oc2ccc(NC(=O)Nc3ccc(Cl)c(C(F)(F)F)c3)cc2)ccn1
REMARK SMILES IDX 12 1 9 2 11 3 28 4 10 5 29 6 13 7 16 8 14 9 15 11 17 13
REMARK SMILES IDX 21 14 20 15 22 16 19 17 27 18 18 19 23 20 24 21 25 22 26 23
REMARK SMILES IDX 8 24 7 25 6 26 30 27 5 28 31 29 32 30 3 31 4 32 2 33 1 34
REMARK H PARENT 16 10 13 12 2 35
REMARK Flexibility Score: inf
ROOT
ATOM      1  C   UNL     1      82.992  -0.089  11.383  1.00  0.00     0.043 A 
ATOM      2  C   UNL     1      81.172   0.169   9.311  1.00  0.00     0.127 A 
ATOM      3  C   UNL     1      82.845  -1.127  10.477  1.00  0.00     0.030 A 
ATOM      4  C   UNL     1      82.247   1.074  11.276  1.00  0.00     0.030 A 
ATOM      5  C   UNL     1      81.929  -0.996   9.433  1.00  0.00     0.049 A 
ATOM      6  C   UNL     1      81.331   1.204  10.232  1.00  0.00     0.049 A 
ENDROOT
BRANCH   1   7
ATOM      7  N   UNL     1      83.922  -0.221  12.441  1.00  0.00    -0.308 N 
ATOM      8  N   UNL     1      85.873  -0.276  13.676  1.00  0.00    -0.308 N 
ATOM      9  C   UNL     1      85.315  -0.052  12.394  1.00  0.00     0.323 C 
ATOM     10  H   UNL     1      85.214  -0.517  14.411  1.00  0.00     0.171 HD
ATOM     11  O   UNL     1      85.960   0.247  11.393  1.00  0.00    -0.248 OA
ATOM     12  H   UNL     1      83.524  -0.469  13.343  1.00  0.00     0.171 HD
BRANCH   8  13
ATOM     13  C   UNL     1      87.211  -0.211  14.066  1.00  0.00     0.043 A 
ATOM     14  Cl  UNL     1      91.542  -0.044  15.334  1.00  0.00    -0.084 Cl
ATOM     15  C   UNL     1      89.886  -0.084  14.848  1.00  0.00     0.053 A 
ATOM     16  C   UNL     1      89.159   1.090  14.655  1.00  0.00     0.076 A 
ATOM     17  C   UNL     1      89.276  -1.322  14.650  1.00  0.00     0.023 A 
ATOM     18  C   UNL     1      87.821   1.027  14.264  1.00  0.00     0.040 A 
ATOM     19  C   UNL     1      87.938  -1.386  14.259  1.00  0.00     0.028 A 
BRANCH  16  20
ATOM     20  C   UNL     1      89.776   2.437  14.859  1.00  0.00     0.417 C 
ATOM     21  F   UNL     1      90.299   2.613  16.108  1.00  0.00    -0.166 F 
ATOM     22  F   UNL     1      90.803   2.699  14.001  1.00  0.00    -0.166 F 
ATOM     23  F   UNL     1      88.882   3.452  14.687  1.00  0.00    -0.166 F 
ENDBRANCH  16  20
ENDBRANCH   8  13
ENDBRANCH   1   7
BRANCH   2  24
ATOM     24  O   UNL     1      80.276   0.295   8.294  1.00  0.00    -0.457 OA
BRANCH  24  25
ATOM     25  C   UNL     1      80.348   1.435   7.511  1.00  0.00     0.131 A 
ATOM     26  C   UNL     1      79.364   2.393   7.622  1.00  0.00     0.081 A 
ATOM     27  C   UNL     1      81.404   1.585   6.638  1.00  0.00     0.067 A 
ATOM     28  C   UNL     1      79.484   3.516   6.817  1.00  0.00     0.131 A 
ATOM     29  C   UNL     1      81.433   2.743   5.877  1.00  0.00     0.116 A 
ATOM     30  N   UNL     1      80.495   3.716   5.944  1.00  0.00    -0.251 NA
BRANCH  28  31
ATOM     31  C   UNL     1      78.486   4.570   6.878  1.00  0.00     0.269 C 
ATOM     32  O   UNL     1      77.713   4.655   7.851  1.00  0.00    -0.268 OA
ATOM     33  N   UNL     1      78.457   5.481   5.815  1.00  0.00    -0.354 N 
ATOM     34  C   UNL     1      77.540   6.596   5.742  1.00  0.00     0.143 C 
ATOM     35  H   UNL     1      79.135   5.378   5.065  1.00  0.00     0.163 HD
ENDBRANCH  28  31
ENDBRANCH  24  25
ENDBRANCH   2  24
TORSDOF 6
ENDMDL
MODEL 6
REMARK VINA RESULT:    -7.596      2.483      3.095
REMARK INTER + INTRA:         -11.121
REMARK INTER:                 -10.596
REMARK INTRA:                  -0.525
REMARK UNBOUND:                -0.861
REMARK SMILES CNC(=O)c1cc(Oc2ccc(NC(=O)Nc3ccc(Cl)c(C(F)(F)F)c3)cc2)ccn1
REMARK SMILES IDX 12 1 9 2 11 3 28 4 10 5 29 6 13 7 16 8 14 9 15 11 17 13
REMARK SMILES IDX 21 14 20 15 22 16 19 17 27 18 18 19 23 20 24 21 25 22 26 23
REMARK SMILES IDX 8 24 7 25 6 26 30 27 5 28 31 29 32 30 3 31 4 32 2 33 1 34
REMARK H PARENT 16 10 13 12 2 35
REMARK Flexibility Score: inf
ROOT
ATOM      1  C   UNL     1      82.994   1.621  10.893  1.00  0.00     0.043 A 
ATOM      2  C   UNL     1      80.985   1.327   9.008  1.00  0.00     0.127 A 
ATOM      3  C   UNL     1      83.244   1.970   9.575  1.00  0.00     0.030 A 
ATOM      4  C   UNL     1      81.761   1.126  11.287  1.00  0.00     0.030 A 
ATOM      5  C   UNL     1      82.232   1.822   8.627  1.00  0.00     0.049 A 
ATOM      6  C   UNL     1      80.749   0.979  10.337  1.00  0.00     0.049 A 
ENDROOT
BRANCH   1   7
ATOM      7  N   UNL     1      84.019   1.771  11.855  1.00  0.00    -0.308 N 
ATOM      8  N   UNL     1      85.936   1.470  13.109  1.00  0.00    -0.308 N 
ATOM      9  C   UNL     1      85.164   0.976  12.029  1.00  0.00     0.323 C 
ATOM     10  H   UNL     1      85.566   2.291  13.580  1.00  0.00     0.171 HD
ATOM     11  O   UNL     1      85.458  -0.003  11.350  1.00  0.00    -0.248 OA
ATOM     12  H   UNL     1      83.907   2.553  12.494  1.00  0.00     0.171 HD
BRANCH   8  13
ATOM     13  C   UNL     1      87.140   0.978  13.615  1.00  0.00     0.043 A 
ATOM     14  Cl  UNL     1      91.051  -0.573  15.253  1.00  0.00    -0.084 Cl
ATOM     15  C   UNL     1      89.547  -0.003  14.626  1.00  0.00     0.053 A 
ATOM     16  C   UNL     1      88.540  -0.887  14.243  1.00  0.00     0.076 A 
ATOM     17  C   UNL     1      89.352   1.373  14.503  1.00  0.00     0.023 A 
ATOM     18  C   UNL     1      87.336  -0.397  13.737  1.00  0.00     0.040 A 
ATOM     19  C   UNL     1      88.148   1.864  13.998  1.00  0.00     0.028 A 
BRANCH  16  20
ATOM     20  C   UNL     1      88.712  -2.368  14.356  1.00  0.00     0.417 C 
ATOM     21  F   UNL     1      89.966  -2.797  14.030  1.00  0.00    -0.166 F 
ATOM     22  F   UNL     1      88.485  -2.847  15.613  1.00  0.00    -0.166 F 
ATOM     23  F   UNL     1      87.863  -3.056  13.540  1.00  0.00    -0.166 F 
ENDBRANCH  16  20
ENDBRANCH   8  13
ENDBRANCH   1   7
BRANCH   2  24
ATOM     24  O   UNL     1      79.998   1.180   8.081  1.00  0.00    -0.457 OA
BRANCH  24  25
ATOM     25  C   UNL     1      79.393   2.329   7.600  1.00  0.00     0.131 A 
ATOM     26  C   UNL     1      79.808   2.857   6.397  1.00  0.00     0.081 A 
ATOM     27  C   UNL     1      78.386   2.917   8.336  1.00  0.00     0.067 A 
ATOM     28  C   UNL     1      79.169   4.006   5.958  1.00  0.00     0.131 A 
ATOM     29  C   UNL     1      77.811   4.063   7.810  1.00  0.00     0.116 A 
ATOM     30  N   UNL     1      78.178   4.625   6.637  1.00  0.00    -0.251 NA
BRANCH  28  31
ATOM     31  C   UNL     1      79.552   4.622   4.699  1.00  0.00     0.269 C 
ATOM     32  O   UNL     1      78.685   4.967   3.875  1.00  0.00    -0.268 OA
ATOM     33  N   UNL     1      80.920   4.824   4.479  1.00  0.00    -0.354 N 
ATOM     34  C   UNL     1      81.455   5.445   3.289  1.00  0.00     0.143 C 
ATOM     35  H   UNL     1      81.577   4.551   5.205  1.00  0.00     0.163 HD
ENDBRANCH  28  31
ENDBRANCH  24  25
ENDBRANCH   2  24
TORSDOF 6
ENDMDL
MODEL 7
REMARK VINA RESULT:    -7.489      7.112     10.149
REMARK INTER + INTRA:         -10.977
REMARK INTER:                 -10.171
REMARK INTRA:                  -0.805
REMARK UNBOUND:                -0.861
REMARK SMILES CNC(=O)c1cc(Oc2ccc(NC(=O)Nc3ccc(Cl)c(C(F)(F)F)c3)cc2)ccn1
REMARK SMILES IDX 12 1 9 2 11 3 28 4 10 5 29 6 13 7 16 8 14 9 15 11 17 13
REMARK SMILES IDX 21 14 20 15 22 16 19 17 27 18 18 19 23 20 24 21 25 22 26 23
REMARK SMILES IDX 8 24 7 25 6 26 30 27 5 28 31 29 32 30 3 31 4 32 2 33 1 34
REMARK H PARENT 16 10 13 12 2 35
REMARK Flexibility Score: inf
ROOT
ATOM      1  C   UNL     1      82.443   1.441  10.021  1.00  0.00     0.043 A 
ATOM      2  C   UNL     1      84.832   2.837  10.156  1.00  0.00     0.127 A 
ATOM      3  C   UNL     1      83.137   1.482  11.220  1.00  0.00     0.030 A 
ATOM      4  C   UNL     1      82.919   2.081   8.889  1.00  0.00     0.030 A 
ATOM      5  C   UNL     1      84.339   2.187  11.287  1.00  0.00     0.049 A 
ATOM      6  C   UNL     1      84.122   2.785   8.957  1.00  0.00     0.049 A 
ENDROOT
BRANCH   1   7
ATOM      7  N   UNL     1      81.224   0.727   9.952  1.00  0.00    -0.308 N 
ATOM      8  N   UNL     1      79.600  -0.829   9.429  1.00  0.00    -0.308 N 
ATOM      9  C   UNL     1      80.944  -0.439   9.222  1.00  0.00     0.323 C 
ATOM     10  H   UNL     1      79.055  -0.235  10.048  1.00  0.00     0.171 HD
ATOM     11  O   UNL     1      81.744  -1.037   8.507  1.00  0.00    -0.248 OA
ATOM     12  H   UNL     1      80.461   1.113  10.502  1.00  0.00     0.171 HD
BRANCH   8  13
ATOM     13  C   UNL     1      78.918  -1.923   8.894  1.00  0.00     0.043 A 
ATOM     14  Cl  UNL     1      76.682  -5.438   7.152  1.00  0.00    -0.084 Cl
ATOM     15  C   UNL     1      77.554  -4.110   7.826  1.00  0.00     0.053 A 
ATOM     16  C   UNL     1      78.721  -4.308   8.563  1.00  0.00     0.076 A 
ATOM     17  C   UNL     1      77.068  -2.818   7.623  1.00  0.00     0.023 A 
ATOM     18  C   UNL     1      79.404  -3.215   9.098  1.00  0.00     0.040 A 
ATOM     19  C   UNL     1      77.750  -1.725   8.157  1.00  0.00     0.028 A 
BRANCH  16  20
ATOM     20  C   UNL     1      79.273  -5.677   8.805  1.00  0.00     0.417 C 
ATOM     21  F   UNL     1      79.289  -6.462   7.688  1.00  0.00    -0.166 F 
ATOM     22  F   UNL     1      80.559  -5.671   9.259  1.00  0.00    -0.166 F 
ATOM     23  F   UNL     1      78.556  -6.372   9.734  1.00  0.00    -0.166 F 
ENDBRANCH  16  20
ENDBRANCH   8  13
ENDBRANCH   1   7
BRANCH   2  24
ATOM     24  O   UNL     1      86.006   3.522  10.222  1.00  0.00    -0.457 OA
BRANCH  24  25
ATOM     25  C   UNL     1      86.059   4.631  11.050  1.00  0.00     0.131 A 
ATOM     26  C   UNL     1      85.185   5.675  10.836  1.00  0.00     0.081 A 
ATOM     27  C   UNL     1      86.984   4.664  12.072  1.00  0.00     0.067 A 
ATOM     28  C   UNL     1      85.278   6.760  11.693  1.00  0.00     0.131 A 
ATOM     29  C   UNL     1      86.995   5.794  12.874  1.00  0.00     0.116 A 
ATOM     30  N   UNL     1      86.163   6.847  12.709  1.00  0.00    -0.251 NA
BRANCH  28  31
ATOM     31  C   UNL     1      84.391   7.899  11.530  1.00  0.00     0.269 C 
ATOM     32  O   UNL     1      84.214   8.408  10.408  1.00  0.00    -0.268 OA
ATOM     33  N   UNL     1      83.740   8.369  12.678  1.00  0.00    -0.354 N 
ATOM     34  C   UNL     1      82.810   9.476  12.674  1.00  0.00     0.143 C 
ATOM     35  H   UNL     1      83.900   7.890  13.560  1.00  0.00     0.163 HD
ENDBRANCH  28  31
ENDBRANCH  24  25
ENDBRANCH   2  24
TORSDOF 6
ENDMDL
MODEL 8
REMARK VINA RESULT:    -7.461      2.300      2.892
REMARK INTER + INTRA:         -10.939
REMARK INTER:                  -9.991
REMARK INTRA:                  -0.948
REMARK UNBOUND:                -0.861
REMARK SMILES CNC(=O)c1cc(Oc2ccc(NC(=O)Nc3ccc(Cl)c(C(F)(F)F)c3)cc2)ccn1
REMARK SMILES IDX 12 1 9 2 11 3 28 4 10 5 29 6 13 7 16 8 14 9 15 11 17 13
REMARK SMILES IDX 21 14 20 15 22 16 19 17 27 18 18 19 23 20 24 21 25 22 26 23
REMARK SMILES IDX 8 24 7 25 6 26 30 27 5 28 31 29 32 30 3 31 4 32 2 33 1 34
REMARK H PARENT 16 10 13 12 2 35
REMARK Flexibility Score: inf
ROOT
ATOM      1  C   UNL     1      82.854  -0.099  11.364  1.00  0.00     0.043 A 
ATOM      2  C   UNL     1      80.923   0.203   9.402  1.00  0.00     0.127 A 
ATOM      3  C   UNL     1      82.161   1.097  11.274  1.00  0.00     0.030 A 
ATOM      4  C   UNL     1      82.604  -1.146  10.493  1.00  0.00     0.030 A 
ATOM      5  C   UNL     1      81.187   1.248  10.286  1.00  0.00     0.049 A 
ATOM      6  C   UNL     1      81.630  -0.994   9.505  1.00  0.00     0.049 A 
ENDROOT
BRANCH   1   7
ATOM      7  N   UNL     1      83.841  -0.253  12.366  1.00  0.00    -0.308 N 
ATOM      8  N   UNL     1      85.862  -0.417  13.472  1.00  0.00    -0.308 N 
ATOM      9  C   UNL     1      85.237  -0.221  12.218  1.00  0.00     0.323 C 
ATOM     10  H   UNL     1      85.238  -0.546  14.264  1.00  0.00     0.171 HD
ATOM     11  O   UNL     1      85.833  -0.050  11.159  1.00  0.00    -0.248 OA
ATOM     12  H   UNL     1      83.487  -0.404  13.307  1.00  0.00     0.171 HD
BRANCH   8  13
ATOM     13  C   UNL     1      87.225  -0.457  13.770  1.00  0.00     0.043 A 
ATOM     14  Cl  UNL     1      91.631  -0.549  14.749  1.00  0.00    -0.084 Cl
ATOM     15  C   UNL     1      89.949  -0.536  14.364  1.00  0.00     0.053 A 
ATOM     16  C   UNL     1      89.373  -1.549  13.600  1.00  0.00     0.076 A 
ATOM     17  C   UNL     1      89.164   0.519  14.830  1.00  0.00     0.023 A 
ATOM     18  C   UNL     1      88.010  -1.511  13.303  1.00  0.00     0.040 A 
ATOM     19  C   UNL     1      87.801   0.558  14.534  1.00  0.00     0.028 A 
BRANCH  16  20
ATOM     20  C   UNL     1      90.180  -2.695  13.080  1.00  0.00     0.417 C 
ATOM     21  F   UNL     1      91.097  -2.330  12.137  1.00  0.00    -0.166 F 
ATOM     22  F   UNL     1      90.897  -3.338  14.047  1.00  0.00    -0.166 F 
ATOM     23  F   UNL     1      89.408  -3.654  12.493  1.00  0.00    -0.166 F 
ENDBRANCH  16  20
ENDBRANCH   8  13
ENDBRANCH   1   7
BRANCH   2  24
ATOM     24  O   UNL     1      79.975   0.351   8.436  1.00  0.00    -0.457 OA
BRANCH  24  25
ATOM     25  C   UNL     1      80.076   1.450   7.599  1.00  0.00     0.131 A 
ATOM     26  C   UNL     1      79.149   2.464   7.703  1.00  0.00     0.081 A 
ATOM     27  C   UNL     1      81.103   1.504   6.681  1.00  0.00     0.067 A 
ATOM     28  C   UNL     1      79.295   3.542   6.844  1.00  0.00     0.131 A 
ATOM     29  C   UNL     1      81.162   2.625   5.868  1.00  0.00     0.116 A 
ATOM     30  N   UNL     1      80.281   3.649   5.926  1.00  0.00    -0.251 NA
BRANCH  28  31
ATOM     31  C   UNL     1      78.357   4.651   6.894  1.00  0.00     0.269 C 
ATOM     32  O   UNL     1      77.572   4.773   7.852  1.00  0.00    -0.268 OA
ATOM     33  N   UNL     1      78.401   5.569   5.838  1.00  0.00    -0.354 N 
ATOM     34  C   UNL     1      77.550   6.735   5.756  1.00  0.00     0.143 C 
ATOM     35  H   UNL     1      79.087   5.433   5.100  1.00  0.00     0.163 HD
ENDBRANCH  28  31
ENDBRANCH  24  25
ENDBRANCH   2  24
TORSDOF 6
ENDMDL
MODEL 9
REMARK VINA RESULT:    -7.446      6.714     10.740
REMARK INTER + INTRA:         -10.919
REMARK INTER:                 -10.184
REMARK INTRA:                  -0.735
REMARK UNBOUND:                -0.861
REMARK SMILES CNC(=O)c1cc(Oc2ccc(NC(=O)Nc3ccc(Cl)c(C(F)(F)F)c3)cc2)ccn1
REMARK SMILES IDX 12 1 9 2 11 3 28 4 10 5 29 6 13 7 16 8 14 9 15 11 17 13
REMARK SMILES IDX 21 14 20 15 22 16 19 17 27 18 18 19 23 20 24 21 25 22 26 23
REMARK SMILES IDX 8 24 7 25 6 26 30 27 5 28 31 29 32 30 3 31 4 32 2 33 1 34
REMARK H PARENT 16 10 13 12 2 35
REMARK Flexibility Score: inf
ROOT
ATOM      1  C   UNL     1      85.733   2.802  11.819  1.00  0.00     0.043 A 
ATOM      2  C   UNL     1      86.008   0.385  13.145  1.00  0.00     0.127 A 
ATOM      3  C   UNL     1      84.852   1.769  11.536  1.00  0.00     0.030 A 
ATOM      4  C   UNL     1      86.748   2.651  12.749  1.00  0.00     0.030 A 
ATOM      5  C   UNL     1      84.991   0.553  12.205  1.00  0.00     0.049 A 
ATOM      6  C   UNL     1      86.886   1.433  13.417  1.00  0.00     0.049 A 
ENDROOT
BRANCH   1   7
ATOM      7  N   UNL     1      85.592   4.035  11.142  1.00  0.00    -0.308 N 
ATOM      8  N   UNL     1      85.263   6.272  10.667  1.00  0.00    -0.308 N 
ATOM      9  C   UNL     1      85.324   5.299  11.693  1.00  0.00     0.323 C 
ATOM     10  H   UNL     1      85.414   5.931   9.721  1.00  0.00     0.171 HD
ATOM     11  O   UNL     1      85.165   5.532  12.888  1.00  0.00    -0.248 OA
ATOM     12  H   UNL     1      85.701   3.994  10.132  1.00  0.00     0.171 HD
BRANCH   8  13
ATOM     13  C   UNL     1      85.020   7.642  10.779  1.00  0.00     0.043 A 
ATOM     14  Cl  UNL     1      84.272  12.081  11.124  1.00  0.00    -0.084 Cl
ATOM     15  C   UNL     1      84.536  10.380  11.002  1.00  0.00     0.053 A 
ATOM     16  C   UNL     1      83.630   9.466  11.537  1.00  0.00     0.076 A 
ATOM     17  C   UNL     1      85.686   9.925  10.356  1.00  0.00     0.023 A 
ATOM     18  C   UNL     1      83.871   8.096  11.425  1.00  0.00     0.040 A 
ATOM     19  C   UNL     1      85.928   8.556  10.244  1.00  0.00     0.028 A 
BRANCH  16  20
ATOM     20  C   UNL     1      82.387   9.913  12.238  1.00  0.00     0.417 C 
ATOM     21  F   UNL     1      82.629  10.704  13.324  1.00  0.00    -0.166 F 
ATOM     22  F   UNL     1      81.547  10.639  11.446  1.00  0.00    -0.166 F 
ATOM     23  F   UNL     1      81.645   8.867  12.702  1.00  0.00    -0.166 F 
ENDBRANCH  16  20
ENDBRANCH   8  13
ENDBRANCH   1   7
BRANCH   2  24
ATOM     24  O   UNL     1      86.144  -0.803  13.795  1.00  0.00    -0.457 OA
BRANCH  24  25
ATOM     25  C   UNL     1      87.380  -1.426  13.744  1.00  0.00     0.131 A 
ATOM     26  C   UNL     1      87.704  -2.191  12.644  1.00  0.00     0.081 A 
ATOM     27  C   UNL     1      88.258  -1.266  14.795  1.00  0.00     0.067 A 
ATOM     28  C   UNL     1      88.953  -2.793  12.641  1.00  0.00     0.131 A 
ATOM     29  C   UNL     1      89.482  -1.909  14.695  1.00  0.00     0.116 A 
ATOM     30  N   UNL     1      89.853  -2.671  13.642  1.00  0.00    -0.251 NA
BRANCH  28  31
ATOM     31  C   UNL     1      89.367  -3.615  11.517  1.00  0.00     0.269 C 
ATOM     32  O   UNL     1      90.514  -4.096  11.474  1.00  0.00    -0.268 OA
ATOM     33  N   UNL     1      88.416  -3.851  10.517  1.00  0.00    -0.354 N 
ATOM     34  C   UNL     1      88.668  -4.666   9.350  1.00  0.00     0.143 C 
ATOM     35  H   UNL     1      87.486  -3.457  10.625  1.00  0.00     0.163 HD
ENDBRANCH  28  31
ENDBRANCH  24  25
ENDBRANCH   2  24
TORSDOF 6
ENDMDL
MODEL 10
REMARK VINA RESULT:    -7.362      2.383      3.599
REMARK INTER + INTRA:         -10.806
REMARK INTER:                  -9.885
REMARK INTRA:                  -0.921
REMARK UNBOUND:                -0.861
REMARK SMILES CNC(=O)c1cc(Oc2ccc(NC(=O)Nc3ccc(Cl)c(C(F)(F)F)c3)cc2)ccn1
REMARK SMILES IDX 12 1 9 2 11 3 28 4 10 5 29 6 13 7 16 8 14 9 15 11 17 13
REMARK SMILES IDX 21 14 20 15 22 16 19 17 27 18 18 19 23 20 24 21 25 22 26 23
REMARK SMILES IDX 8 24 7 25 6 26 30 27 5 28 31 29 32 30 3 31 4 32 2 33 1 34
REMARK H PARENT 16 10 13 12 2 35
REMARK Flexibility Score: inf
ROOT
ATOM      1  C   UNL     1      82.989  -0.040  11.116  1.00  0.00     0.043 A 
ATOM      2  C   UNL     1      81.239   0.387   9.011  1.00  0.00     0.127 A 
ATOM      3  C   UNL     1      82.932  -0.963  10.084  1.00  0.00     0.030 A 
ATOM      4  C   UNL     1      82.189   1.091  11.118  1.00  0.00     0.030 A 
ATOM      5  C   UNL     1      82.051  -0.747   9.024  1.00  0.00     0.049 A 
ATOM      6  C   UNL     1      81.308   1.306  10.058  1.00  0.00     0.049 A 
ENDROOT
BRANCH   1   7
ATOM      7  N   UNL     1      83.882  -0.258  12.191  1.00  0.00    -0.308 N 
ATOM      8  N   UNL     1      85.786  -0.383  13.492  1.00  0.00    -0.308 N 
ATOM      9  C   UNL     1      85.268  -0.034  12.222  1.00  0.00     0.323 C 
ATOM     10  H   UNL     1      85.111  -0.730  14.168  1.00  0.00     0.171 HD
ATOM     11  O   UNL     1      85.938   0.400  11.290  1.00  0.00    -0.248 OA
ATOM     12  H   UNL     1      83.461  -0.622  13.041  1.00  0.00     0.171 HD
BRANCH   8  13
ATOM     13  C   UNL     1      87.105  -0.315  13.944  1.00  0.00     0.043 A 
ATOM     14  Cl  UNL     1      91.372  -0.136  15.410  1.00  0.00    -0.084 Cl
ATOM     15  C   UNL     1      89.741  -0.180  14.848  1.00  0.00     0.053 A 
ATOM     16  C   UNL     1      89.028   0.992  14.600  1.00  0.00     0.076 A 
ATOM     17  C   UNL     1      89.136  -1.420  14.644  1.00  0.00     0.023 A 
ATOM     18  C   UNL     1      87.709   0.926  14.148  1.00  0.00     0.040 A 
ATOM     19  C   UNL     1      87.818  -1.488  14.192  1.00  0.00     0.028 A 
BRANCH  16  20
ATOM     20  C   UNL     1      89.639   2.341  14.808  1.00  0.00     0.417 C 
ATOM     21  F   UNL     1      90.720   2.578  14.008  1.00  0.00    -0.166 F 
ATOM     22  F   UNL     1      88.779   3.371  14.563  1.00  0.00    -0.166 F 
ATOM     23  F   UNL     1      90.080   2.522  16.086  1.00  0.00    -0.166 F 
ENDBRANCH  16  20
ENDBRANCH   8  13
ENDBRANCH   1   7
BRANCH   2  24
ATOM     24  O   UNL     1      80.378   0.596   7.978  1.00  0.00    -0.457 OA
BRANCH  24  25
ATOM     25  C   UNL     1      79.070   0.168   8.134  1.00  0.00     0.131 A 
ATOM     26  C   UNL     1      78.730  -1.111   7.750  1.00  0.00     0.081 A 
ATOM     27  C   UNL     1      78.139   1.031   8.670  1.00  0.00     0.067 A 
ATOM     28  C   UNL     1      77.409  -1.492   7.928  1.00  0.00     0.131 A 
ATOM     29  C   UNL     1      76.845   0.555   8.807  1.00  0.00     0.116 A 
ATOM     30  N   UNL     1      76.454  -0.689   8.448  1.00  0.00    -0.251 NA
BRANCH  28  31
ATOM     31  C   UNL     1      76.973  -2.824   7.548  1.00  0.00     0.269 C 
ATOM     32  O   UNL     1      76.121  -2.980   6.653  1.00  0.00    -0.268 OA
ATOM     33  N   UNL     1      77.569  -3.903   8.212  1.00  0.00    -0.354 N 
ATOM     34  C   UNL     1      77.259  -5.287   7.930  1.00  0.00     0.143 C 
ATOM     35  H   UNL     1      78.282  -3.713   8.911  1.00  0.00     0.163 HD
ENDBRANCH  28  31
ENDBRANCH  24  25
ENDBRANCH   2  24
TORSDOF 6
ENDMDL
MODEL 11
REMARK VINA RESULT:    -7.338      2.071      2.842
REMARK INTER + INTRA:         -10.773
REMARK INTER:                  -9.883
REMARK INTRA:                  -0.890
REMARK UNBOUND:                -0.861
REMARK SMILES CNC(=O)c1cc(Oc2ccc(NC(=O)Nc3ccc(Cl)c(C(F)(F)F)c3)cc2)ccn1
REMARK SMILES IDX 12 1 9 2 11 3 28 4 10 5 29 6 13 7 16 8 14 9 15 11 17 13
REMARK SMILES IDX 21 14 20 15 22 16 19 17 27 18 18 19 23 20 24 21 25 22 26 23
REMARK SMILES IDX 8 24 7 25 6 26 30 27 5 28 31 29 32 30 3 31 4 32 2 33 1 34
REMARK H PARENT 16 10 13 12 2 35
REMARK Flexibility Score: inf
ROOT
ATOM      1  C   UNL     1      83.066  -0.092  11.469  1.00  0.00     0.043 A 
ATOM      2  C   UNL     1      81.009   0.033   9.618  1.00  0.00     0.127 A 
ATOM      3  C   UNL     1      83.036  -1.005  10.427  1.00  0.00     0.030 A 
ATOM      4  C   UNL     1      82.089   0.881  11.605  1.00  0.00     0.030 A 
ATOM      5  C   UNL     1      82.000  -0.941   9.495  1.00  0.00     0.049 A 
ATOM      6  C   UNL     1      81.054   0.943  10.672  1.00  0.00     0.049 A 
ENDROOT
BRANCH   1   7
ATOM      7  N   UNL     1      84.116  -0.156  12.415  1.00  0.00    -0.308 N 
ATOM      8  N   UNL     1      86.085   0.224  13.561  1.00  0.00    -0.308 N 
ATOM      9  C   UNL     1      85.301   0.598  12.443  1.00  0.00     0.323 C 
ATOM     10  H   UNL     1      85.696  -0.504  14.154  1.00  0.00     0.171 HD
ATOM     11  O   UNL     1      85.615   1.456  11.624  1.00  0.00    -0.248 OA
ATOM     12  H   UNL     1      83.989  -0.833  13.162  1.00  0.00     0.171 HD
BRANCH   8  13
ATOM     13  C   UNL     1      87.327   0.721  13.959  1.00  0.00     0.043 A 
ATOM     14  Cl  UNL     1      91.330   2.368  15.243  1.00  0.00    -0.084 Cl
ATOM     15  C   UNL     1      89.809   1.716  14.753  1.00  0.00     0.053 A 
ATOM     16  C   UNL     1      89.651   0.353  14.505  1.00  0.00     0.076 A 
ATOM     17  C   UNL     1      88.726   2.582  14.603  1.00  0.00     0.023 A 
ATOM     18  C   UNL     1      88.410  -0.145  14.108  1.00  0.00     0.040 A 
ATOM     19  C   UNL     1      87.485   2.085  14.206  1.00  0.00     0.028 A 
BRANCH  16  20
ATOM     20  C   UNL     1      90.787  -0.608  14.653  1.00  0.00     0.417 C 
ATOM     21  F   UNL     1      91.387  -0.558  15.878  1.00  0.00    -0.166 F 
ATOM     22  F   UNL     1      90.422  -1.911  14.485  1.00  0.00    -0.166 F 
ATOM     23  F   UNL     1      91.781  -0.383  13.747  1.00  0.00    -0.166 F 
ENDBRANCH  16  20
ENDBRANCH   8  13
ENDBRANCH   1   7
BRANCH   2  24
ATOM     24  O   UNL     1      79.998   0.093   8.709  1.00  0.00    -0.457 OA
BRANCH  24  25
ATOM     25  C   UNL     1      79.715   1.324   8.141  1.00  0.00     0.131 A 
ATOM     26  C   UNL     1      80.629   1.898   7.285  1.00  0.00     0.081 A 
ATOM     27  C   UNL     1      78.523   1.947   8.446  1.00  0.00     0.067 A 
ATOM     28  C   UNL     1      80.298   3.129   6.742  1.00  0.00     0.131 A 
ATOM     29  C   UNL     1      78.286   3.176   7.851  1.00  0.00     0.116 A 
ATOM     30  N   UNL     1      79.147   3.786   7.005  1.00  0.00    -0.251 NA
BRANCH  28  31
ATOM     31  C   UNL     1      81.211   3.798   5.831  1.00  0.00     0.269 C 
ATOM     32  O   UNL     1      82.432   3.835   6.072  1.00  0.00    -0.268 OA
ATOM     33  N   UNL     1      80.657   4.366   4.677  1.00  0.00    -0.354 N 
ATOM     34  C   UNL     1      81.436   5.042   3.665  1.00  0.00     0.143 C 
ATOM     35  H   UNL     1      79.657   4.274   4.520  1.00  0.00     0.163 HD
ENDBRANCH  28  31
ENDBRANCH  24  25
ENDBRANCH   2  24
TORSDOF 6
ENDMDL
MODEL 12
REMARK VINA RESULT:    -7.278      3.276      4.794
REMARK INTER + INTRA:         -10.692
REMARK INTER:                 -10.240
REMARK INTRA:                  -0.452
REMARK UNBOUND:                -0.861
REMARK SMILES CNC(=O)c1cc(Oc2ccc(NC(=O)Nc3ccc(Cl)c(C(F)(F)F)c3)cc2)ccn1
REMARK SMILES IDX 12 1 9 2 11 3 28 4 10 5 29 6 13 7 16 8 14 9 15 11 17 13
REMARK SMILES IDX 21 14 20 15 22 16 19 17 27 18 18 19 23 20 24 21 25 22 26 23
REMARK SMILES IDX 8 24 7 25 6 26 30 27 5 28 31 29 32 30 3 31 4 32 2 33 1 34
REMARK H PARENT 16 10 13 12 2 35
REMARK Flexibility Score: inf
ROOT
ATOM      1  C   UNL     1      82.959   1.603  10.846  1.00  0.00     0.043 A 
ATOM      2  C   UNL     1      80.927   1.176   9.012  1.00  0.00     0.127 A 
ATOM      3  C   UNL     1      83.201   1.829   9.501  1.00  0.00     0.030 A 
ATOM      4  C   UNL     1      81.722   1.166  11.293  1.00  0.00     0.030 A 
ATOM      5  C   UNL     1      82.178   1.615   8.578  1.00  0.00     0.049 A 
ATOM      6  C   UNL     1      80.699   0.952  10.369  1.00  0.00     0.049 A 
ENDROOT
BRANCH   1   7
ATOM      7  N   UNL     1      83.996   1.821  11.783  1.00  0.00    -0.308 N 
ATOM      8  N   UNL     1      85.916   1.597  13.047  1.00  0.00    -0.308 N 
ATOM      9  C   UNL     1      85.124   1.021  12.025  1.00  0.00     0.323 C 
ATOM     10  H   UNL     1      85.569   2.468  13.440  1.00  0.00     0.171 HD
ATOM     11  O   UNL     1      85.390  -0.026  11.441  1.00  0.00    -0.248 OA
ATOM     12  H   UNL     1      83.906   2.663  12.345  1.00  0.00     0.171 HD
BRANCH   8  13
ATOM     13  C   UNL     1      87.113   1.129  13.590  1.00  0.00     0.043 A 
ATOM     14  Cl  UNL     1      91.003  -0.347  15.345  1.00  0.00    -0.084 Cl
ATOM     15  C   UNL     1      89.508   0.194  14.674  1.00  0.00     0.053 A 
ATOM     16  C   UNL     1      88.506  -0.707  14.316  1.00  0.00     0.076 A 
ATOM     17  C   UNL     1      89.313   1.563  14.490  1.00  0.00     0.023 A 
ATOM     18  C   UNL     1      87.308  -0.240  13.773  1.00  0.00     0.040 A 
ATOM     19  C   UNL     1      88.116   2.031  13.948  1.00  0.00     0.028 A 
BRANCH  16  20
ATOM     20  C   UNL     1      88.676  -2.182  14.495  1.00  0.00     0.417 C 
ATOM     21  F   UNL     1      89.925  -2.628  14.173  1.00  0.00    -0.166 F 
ATOM     22  F   UNL     1      88.465  -2.601  15.776  1.00  0.00    -0.166 F 
ATOM     23  F   UNL     1      87.816  -2.904  13.723  1.00  0.00    -0.166 F 
ENDBRANCH  16  20
ENDBRANCH   8  13
ENDBRANCH   1   7
BRANCH   2  24
ATOM     24  O   UNL     1      79.929   0.964   8.110  1.00  0.00    -0.457 OA
BRANCH  24  25
ATOM     25  C   UNL     1      79.262  -0.248   8.162  1.00  0.00     0.131 A 
ATOM     26  C   UNL     1      79.988  -1.414   8.268  1.00  0.00     0.081 A 
ATOM     27  C   UNL     1      77.884  -0.260   8.108  1.00  0.00     0.067 A 
ATOM     28  C   UNL     1      79.273  -2.600   8.318  1.00  0.00     0.131 A 
ATOM     29  C   UNL     1      77.263  -1.497   8.165  1.00  0.00     0.116 A 
ATOM     30  N   UNL     1      77.924  -2.672   8.268  1.00  0.00    -0.251 NA
BRANCH  28  31
ATOM     31  C   UNL     1      79.968  -3.871   8.429  1.00  0.00     0.269 C 
ATOM     32  O   UNL     1      81.198  -3.937   8.246  1.00  0.00    -0.268 OA
ATOM     33  N   UNL     1      79.199  -4.990   8.771  1.00  0.00    -0.354 N 
ATOM     34  C   UNL     1      79.748  -6.316   8.943  1.00  0.00     0.143 C 
ATOM     35  H   UNL     1      78.205  -4.866   8.940  1.00  0.00     0.163 HD
ENDBRANCH  28  31
ENDBRANCH  24  25
ENDBRANCH   2  24
TORSDOF 6
ENDMDL
MODEL 13
REMARK VINA RESULT:    -7.240      1.566      2.066
REMARK INTER + INTRA:         -10.640
REMARK INTER:                  -9.833
REMARK INTRA:                  -0.807
REMARK UNBOUND:                -0.861
REMARK SMILES CNC(=O)c1cc(Oc2ccc(NC(=O)Nc3ccc(Cl)c(C(F)(F)F)c3)cc2)ccn1
REMARK SMILES IDX 12 1 9 2 11 3 28 4 10 5 29 6 13 7 16 8 14 9 15 11 17 13
REMARK SMILES IDX 21 14 20 15 22 16 19 17 27 18 18 19 23 20 24 21 25 22 26 23
REMARK SMILES IDX 8 24 7 25 6 26 30 27 5 28 31 29 32 30 3 31 4 32 2 33 1 34
REMARK H PARENT 16 10 13 12 2 35
REMARK Flexibility Score: inf
ROOT
ATOM      1  C   UNL     1      82.687  -0.108  11.375  1.00  0.00     0.043 A 
ATOM      2  C   UNL     1      80.791   0.133   9.369  1.00  0.00     0.127 A 
ATOM      3  C   UNL     1      81.954   1.063  11.271  1.00  0.00     0.030 A 
ATOM      4  C   UNL     1      82.492  -1.161  10.495  1.00  0.00     0.030 A 
ATOM      5  C   UNL     1      80.999   1.184  10.262  1.00  0.00     0.049 A 
ATOM      6  C   UNL     1      81.537  -1.039   9.485  1.00  0.00     0.049 A 
ENDROOT
BRANCH   1   7
ATOM      7  N   UNL     1      83.655  -0.231  12.399  1.00  0.00    -0.308 N 
ATOM      8  N   UNL     1      85.654  -0.328  13.550  1.00  0.00    -0.308 N 
ATOM      9  C   UNL     1      85.052  -0.149  12.282  1.00  0.00     0.323 C 
ATOM     10  H   UNL     1      85.017  -0.484  14.327  1.00  0.00     0.171 HD
ATOM     11  O   UNL     1      85.666   0.050  11.238  1.00  0.00    -0.248 OA
ATOM     12  H   UNL     1      83.285  -0.400  13.330  1.00  0.00     0.171 HD
BRANCH   8  13
ATOM     13  C   UNL     1      87.011  -0.320  13.879  1.00  0.00     0.043 A 
ATOM     14  Cl  UNL     1      91.398  -0.336  14.945  1.00  0.00    -0.084 Cl
ATOM     15  C   UNL     1      89.721  -0.305  14.538  1.00  0.00     0.053 A 
ATOM     16  C   UNL     1      89.018   0.895  14.452  1.00  0.00     0.076 A 
ATOM     17  C   UNL     1      89.069  -1.514  14.295  1.00  0.00     0.023 A 
ATOM     18  C   UNL     1      87.662   0.889  14.123  1.00  0.00     0.040 A 
ATOM     19  C   UNL     1      87.713  -1.522  13.965  1.00  0.00     0.028 A 
BRANCH  16  20
ATOM     20  C   UNL     1      89.680   2.212  14.707  1.00  0.00     0.417 C 
ATOM     21  F   UNL     1      88.814   3.267  14.698  1.00  0.00    -0.166 F 
ATOM     22  F   UNL     1      90.312   2.277  15.914  1.00  0.00    -0.166 F 
ATOM     23  F   UNL     1      90.631   2.506  13.776  1.00  0.00    -0.166 F 
ENDBRANCH  16  20
ENDBRANCH   8  13
ENDBRANCH   1   7
BRANCH   2  24
ATOM     24  O   UNL     1      79.861   0.252   8.382  1.00  0.00    -0.457 OA
BRANCH  24  25
ATOM     25  C   UNL     1      79.628   1.516   7.867  1.00  0.00     0.131 A 
ATOM     26  C   UNL     1      80.449   2.001   6.872  1.00  0.00     0.081 A 
ATOM     27  C   UNL     1      78.578   2.261   8.362  1.00  0.00     0.067 A 
ATOM     28  C   UNL     1      80.172   3.271   6.390  1.00  0.00     0.131 A 
ATOM     29  C   UNL     1      78.385   3.518   7.813  1.00  0.00     0.116 A 
ATOM     30  N   UNL     1      79.158   4.045   6.837  1.00  0.00    -0.251 NA
BRANCH  28  31
ATOM     31  C   UNL     1      80.993   3.851   5.341  1.00  0.00     0.269 C 
ATOM     32  O   UNL     1      82.159   3.454   5.158  1.00  0.00    -0.268 OA
ATOM     33  N   UNL     1      80.405   4.843   4.547  1.00  0.00    -0.354 N 
ATOM     34  C   UNL     1      81.083   5.497   3.451  1.00  0.00     0.143 C 
ATOM     35  H   UNL     1      79.438   5.101   4.725  1.00  0.00     0.163 HD
ENDBRANCH  28  31
ENDBRANCH  24  25
ENDBRANCH   2  24
TORSDOF 6
ENDMDL
MODEL 14
REMARK VINA RESULT:    -7.236      3.321      4.764
REMARK INTER + INTRA:         -10.635
REMARK INTER:                  -9.894
REMARK INTRA:                  -0.742
REMARK UNBOUND:                -0.861
REMARK SMILES CNC(=O)c1cc(Oc2ccc(NC(=O)Nc3ccc(Cl)c(C(F)(F)F)c3)cc2)ccn1
REMARK SMILES IDX 12 1 9 2 11 3 28 4 10 5 29 6 13 7 16 8 14 9 15 11 17 13
REMARK SMILES IDX 21 14 20 15 22 16 19 17 27 18 18 19 23 20 24 21 25 22 26 23
REMARK SMILES IDX 8 24 7 25 6 26 30 27 5 28 31 29 32 30 3 31 4 32 2 33 1 34
REMARK H PARENT 16 10 13 12 2 35
REMARK Flexibility Score: inf
ROOT
ATOM      1  C   UNL     1      82.598   1.346  10.330  1.00  0.00     0.043 A 
ATOM      2  C   UNL     1      79.966   1.239   9.473  1.00  0.00     0.127 A 
ATOM      3  C   UNL     1      82.302   1.643   9.009  1.00  0.00     0.030 A 
ATOM      4  C   UNL     1      81.606   0.995  11.230  1.00  0.00     0.030 A 
ATOM      5  C   UNL     1      80.977   1.590   8.578  1.00  0.00     0.049 A 
ATOM      6  C   UNL     1      80.280   0.942  10.798  1.00  0.00     0.049 A 
ENDROOT
BRANCH   1   7
ATOM      7  N   UNL     1      83.942   1.401  10.767  1.00  0.00    -0.308 N 
ATOM      8  N   UNL     1      86.079   0.819  11.423  1.00  0.00    -0.308 N 
ATOM      9  C   UNL     1      84.823   0.330  10.989  1.00  0.00     0.323 C 
ATOM     10  H   UNL     1      86.158   1.829  11.507  1.00  0.00     0.171 HD
ATOM     11  O   UNL     1      84.551  -0.856  10.832  1.00  0.00    -0.248 OA
ATOM     12  H   UNL     1      84.308   2.334  10.939  1.00  0.00     0.171 HD
BRANCH   8  13
ATOM     13  C   UNL     1      87.228   0.098  11.752  1.00  0.00     0.043 A 
ATOM     14  Cl  UNL     1      90.957  -2.231  12.778  1.00  0.00    -0.084 Cl
ATOM     15  C   UNL     1      89.524  -1.344  12.409  1.00  0.00     0.053 A 
ATOM     16  C   UNL     1      88.507  -1.185  13.350  1.00  0.00     0.076 A 
ATOM     17  C   UNL     1      89.392  -0.783  11.139  1.00  0.00     0.023 A 
ATOM     18  C   UNL     1      87.359  -0.463  13.022  1.00  0.00     0.040 A 
ATOM     19  C   UNL     1      88.244  -0.062  10.810  1.00  0.00     0.028 A 
BRANCH  16  20
ATOM     20  C   UNL     1      88.609  -1.772  14.721  1.00  0.00     0.417 C 
ATOM     21  F   UNL     1      88.686  -3.135  14.725  1.00  0.00    -0.166 F 
ATOM     22  F   UNL     1      89.706  -1.349  15.413  1.00  0.00    -0.166 F 
ATOM     23  F   UNL     1      87.536  -1.461  15.503  1.00  0.00    -0.166 F 
ENDBRANCH  16  20
ENDBRANCH   8  13
ENDBRANCH   1   7
BRANCH   2  24
ATOM     24  O   UNL     1      78.673   1.184   9.052  1.00  0.00    -0.457 OA
BRANCH  24  25
ATOM     25  C   UNL     1      78.163  -0.053   8.697  1.00  0.00     0.131 A 
ATOM     26  C   UNL     1      78.886  -1.189   8.991  1.00  0.00     0.081 A 
ATOM     27  C   UNL     1      76.943  -0.121   8.059  1.00  0.00     0.067 A 
ATOM     28  C   UNL     1      78.332  -2.403   8.617  1.00  0.00     0.131 A 
ATOM     29  C   UNL     1      76.476  -1.383   7.727  1.00  0.00     0.116 A 
ATOM     30  N   UNL     1      77.141  -2.530   7.989  1.00  0.00    -0.251 NA
BRANCH  28  31
ATOM     31  C   UNL     1      79.034  -3.645   8.892  1.00  0.00     0.269 C 
ATOM     32  O   UNL     1      80.215  -3.630   9.284  1.00  0.00    -0.268 OA
ATOM     33  N   UNL     1      78.316  -4.835   8.718  1.00  0.00    -0.354 N 
ATOM     34  C   UNL     1      78.867  -6.146   8.974  1.00  0.00     0.143 C 
ATOM     35  H   UNL     1      77.344  -4.780   8.427  1.00  0.00     0.163 HD
ENDBRANCH  28  31
ENDBRANCH  24  25
ENDBRANCH   2  24
TORSDOF 6
ENDMDL
MODEL 15
REMARK VINA RESULT:    -7.226      2.808      3.981
REMARK INTER + INTRA:         -10.622
REMARK INTER:                  -9.604
REMARK INTRA:                  -1.018
REMARK UNBOUND:                -0.861
REMARK SMILES CNC(=O)c1cc(Oc2ccc(NC(=O)Nc3ccc(Cl)c(C(F)(F)F)c3)cc2)ccn1
REMARK SMILES IDX 12 1 9 2 11 3 28 4 10 5 29 6 13 7 16 8 14 9 15 11 17 13
REMARK SMILES IDX 21 14 20 15 22 16 19 17 27 18 18 19 23 20 24 21 25 22 26 23
REMARK SMILES IDX 8 24 7 25 6 26 30 27 5 28 31 29 32 30 3 31 4 32 2 33 1 34
REMARK H PARENT 16 10 13 12 2 35
REMARK Flexibility Score: inf
ROOT
ATOM      1  C   UNL     1      83.303   0.059  10.858  1.00  0.00     0.043 A 
ATOM      2  C   UNL     1      81.370   1.273   9.288  1.00  0.00     0.127 A 
ATOM      3  C   UNL     1      83.417   0.003   9.478  1.00  0.00     0.030 A 
ATOM      4  C   UNL     1      82.242   0.708  11.469  1.00  0.00     0.030 A 
ATOM      5  C   UNL     1      82.444   0.615   8.688  1.00  0.00     0.049 A 
ATOM      6  C   UNL     1      81.270   1.320  10.678  1.00  0.00     0.049 A 
ENDROOT
BRANCH   1   7
ATOM      7  N   UNL     1      84.289  -0.561  11.660  1.00  0.00    -0.308 N 
ATOM      8  N   UNL     1      86.262  -1.040  12.762  1.00  0.00    -0.308 N 
ATOM      9  C   UNL     1      85.604  -0.130  11.900  1.00  0.00     0.323 C 
ATOM     10  H   UNL     1      85.712  -1.839  13.068  1.00  0.00     0.171 HD
ATOM     11  O   UNL     1      86.114   0.885  11.436  1.00  0.00    -0.248 OA
ATOM     12  H   UNL     1      84.003  -1.424  12.114  1.00  0.00     0.171 HD
BRANCH   8  13
ATOM     13  C   UNL     1      87.568  -0.989  13.249  1.00  0.00     0.043 A 
ATOM     14  Cl  UNL     1      91.787  -0.790  14.846  1.00  0.00    -0.084 Cl
ATOM     15  C   UNL     1      90.180  -0.887  14.223  1.00  0.00     0.053 A 
ATOM     16  C   UNL     1      89.814  -1.878  13.315  1.00  0.00     0.076 A 
ATOM     17  C   UNL     1      89.241   0.055  14.645  1.00  0.00     0.023 A 
ATOM     18  C   UNL     1      88.507  -1.930  12.827  1.00  0.00     0.040 A 
ATOM     19  C   UNL     1      87.935   0.003  14.158  1.00  0.00     0.028 A 
BRANCH  16  20
ATOM     20  C   UNL     1      90.791  -2.904  12.836  1.00  0.00     0.417 C 
ATOM     21  F   UNL     1      91.881  -2.368  12.213  1.00  0.00    -0.166 F 
ATOM     22  F   UNL     1      91.296  -3.681  13.837  1.00  0.00    -0.166 F 
ATOM     23  F   UNL     1      90.241  -3.770  11.938  1.00  0.00    -0.166 F 
ENDBRANCH  16  20
ENDBRANCH   8  13
ENDBRANCH   1   7
BRANCH   2  24
ATOM     24  O   UNL     1      80.419   1.869   8.517  1.00  0.00    -0.457 OA
BRANCH  24  25
ATOM     25  C   UNL     1      79.134   1.355   8.569  1.00  0.00     0.131 A 
ATOM     26  C   UNL     1      78.934   0.014   8.322  1.00  0.00     0.081 A 
ATOM     27  C   UNL     1      78.085   2.197   8.867  1.00  0.00     0.067 A 
ATOM     28  C   UNL     1      77.630  -0.450   8.388  1.00  0.00     0.131 A 
ATOM     29  C   UNL     1      76.819   1.635   8.909  1.00  0.00     0.116 A 
ATOM     30  N   UNL     1      76.563   0.328   8.675  1.00  0.00    -0.251 NA
BRANCH  28  31
ATOM     31  C   UNL     1      77.338  -1.852   8.140  1.00  0.00     0.269 C 
ATOM     32  O   UNL     1      76.255  -2.192   7.629  1.00  0.00    -0.268 OA
ATOM     33  N   UNL     1      78.332  -2.779   8.478  1.00  0.00    -0.354 N 
ATOM     34  C   UNL     1      78.201  -4.203   8.270  1.00  0.00     0.143 C 
ATOM     35  H   UNL     1      79.208  -2.437   8.861  1.00  0.00     0.163 HD
ENDBRANCH  28  31
ENDBRANCH  24  25
ENDBRANCH   2  24
TORSDOF 6
ENDMDL
MODEL 16
REMARK VINA RESULT:    -7.219      7.654      9.706
REMARK INTER + INTRA:         -10.612
REMARK INTER:                  -9.711
REMARK INTRA:                  -0.901
REMARK UNBOUND:                -0.861
REMARK SMILES CNC(=O)c1cc(Oc2ccc(NC(=O)Nc3ccc(Cl)c(C(F)(F)F)c3)cc2)ccn1
REMARK SMILES IDX 12 1 9 2 11 3 28 4 10 5 29 6 13 7 16 8 14 9 15 11 17 13
REMARK SMILES IDX 21 14 20 15 22 16 19 17 27 18 18 19 23 20 24 21 25 22 26 23
REMARK SMILES IDX 8 24 7 25 6 26 30 27 5 28 31 29 32 30 3 31 4 32 2 33 1 34
REMARK H PARENT 16 10 13 12 2 35
REMARK Flexibility Score: inf
ROOT
ATOM      1  C   UNL     1      85.756   5.525  11.623  1.00  0.00     0.043 A 
ATOM      2  C   UNL     1      85.685   2.771  11.335  1.00  0.00     0.127 A 
ATOM      3  C   UNL     1      85.877   4.972  10.358  1.00  0.00     0.030 A 
ATOM      4  C   UNL     1      85.601   4.729  12.746  1.00  0.00     0.030 A 
ATOM      5  C   UNL     1      85.840   3.585  10.213  1.00  0.00     0.049 A 
ATOM      6  C   UNL     1      85.565   3.342  12.601  1.00  0.00     0.049 A 
ENDROOT
BRANCH   1   7
ATOM      7  N   UNL     1      85.792   6.931  11.770  1.00  0.00    -0.308 N 
ATOM      8  N   UNL     1      85.302   9.183  11.618  1.00  0.00    -0.308 N 
ATOM      9  C   UNL     1      84.910   7.880  11.228  1.00  0.00     0.323 C 
ATOM     10  H   UNL     1      86.128   9.241  12.207  1.00  0.00     0.171 HD
ATOM     11  O   UNL     1      83.941   7.624  10.519  1.00  0.00    -0.248 OA
ATOM     12  H   UNL     1      86.553   7.291  12.340  1.00  0.00     0.171 HD
BRANCH   8  13
ATOM     13  C   UNL     1      84.705  10.404  11.300  1.00  0.00     0.043 A 
ATOM     14  Cl  UNL     1      82.810  14.368  10.259  1.00  0.00    -0.084 Cl
ATOM     15  C   UNL     1      83.512  12.845  10.666  1.00  0.00     0.053 A 
ATOM     16  C   UNL     1      82.781  11.865  11.335  1.00  0.00     0.076 A 
ATOM     17  C   UNL     1      84.841  12.605  10.314  1.00  0.00     0.023 A 
ATOM     18  C   UNL     1      83.377  10.644  11.653  1.00  0.00     0.040 A 
ATOM     19  C   UNL     1      85.437  11.384  10.630  1.00  0.00     0.028 A 
BRANCH  16  20
ATOM     20  C   UNL     1      81.356  12.084  11.732  1.00  0.00     0.417 C 
ATOM     21  F   UNL     1      80.814  11.034  12.415  1.00  0.00    -0.166 F 
ATOM     22  F   UNL     1      81.178  13.168  12.541  1.00  0.00    -0.166 F 
ATOM     23  F   UNL     1      80.541  12.286  10.658  1.00  0.00    -0.166 F 
ENDBRANCH  16  20
ENDBRANCH   8  13
ENDBRANCH   1   7
BRANCH   2  24
ATOM     24  O   UNL     1      85.652   1.417  11.194  1.00  0.00    -0.457 OA
BRANCH  24  25
ATOM     25  C   UNL     1      84.581   0.868  10.508  1.00  0.00     0.131 A 
ATOM     26  C   UNL     1      83.299   1.130  10.940  1.00  0.00     0.081 A 
ATOM     27  C   UNL     1      84.823   0.072   9.409  1.00  0.00     0.067 A 
ATOM     28  C   UNL     1      82.263   0.557  10.219  1.00  0.00     0.131 A 
ATOM     29  C   UNL     1      83.719  -0.453   8.757  1.00  0.00     0.116 A 
ATOM     30  N   UNL     1      82.440  -0.230   9.135  1.00  0.00    -0.251 NA
BRANCH  28  31
ATOM     31  C   UNL     1      80.883   0.787  10.612  1.00  0.00     0.269 C 
ATOM     32  O   UNL     1      80.586   0.959  11.809  1.00  0.00    -0.268 OA
ATOM     33  N   UNL     1      79.928   0.829   9.589  1.00  0.00    -0.354 N 
ATOM     34  C   UNL     1      78.521   1.071   9.817  1.00  0.00     0.143 C 
ATOM     35  H   UNL     1      80.237   0.715   8.628  1.00  0.00     0.163 HD
ENDBRANCH  28  31
ENDBRANCH  24  25
ENDBRANCH   2  24
TORSDOF 6
ENDMDL
MODEL 17
REMARK VINA RESULT:    -7.179      1.755      2.415
REMARK INTER + INTRA:         -10.557
REMARK INTER:                  -9.527
REMARK INTRA:                  -1.030
REMARK UNBOUND:                -0.861
REMARK SMILES CNC(=O)c1cc(Oc2ccc(NC(=O)Nc3ccc(Cl)c(C(F)(F)F)c3)cc2)ccn1
REMARK SMILES IDX 12 1 9 2 11 3 28 4 10 5 29 6 13 7 16 8 14 9 15 11 17 13
REMARK SMILES IDX 21 14 20 15 22 16 19 17 27 18 18 19 23 20 24 21 25 22 26 23
REMARK SMILES IDX 8 24 7 25 6 26 30 27 5 28 31 29 32 30 3 31 4 32 2 33 1 34
REMARK H PARENT 16 10 13 12 2 35
REMARK Flexibility Score: inf
ROOT
ATOM      1  C   UNL     1      84.599   0.709  11.396  1.00  0.00     0.043 A 
ATOM      2  C   UNL     1      81.980   0.013  10.823  1.00  0.00     0.127 A 
ATOM      3  C   UNL     1      84.315  -0.586  10.993  1.00  0.00     0.030 A 
ATOM      4  C   UNL     1      83.602   1.662  11.521  1.00  0.00     0.030 A 
ATOM      5  C   UNL     1      82.996  -0.936  10.703  1.00  0.00     0.049 A 
ATOM      6  C   UNL     1      82.283   1.311  11.231  1.00  0.00     0.049 A 
ENDROOT
BRANCH   1   7
ATOM      7  N   UNL     1      85.937   1.064  11.689  1.00  0.00    -0.308 N 
ATOM      8  N   UNL     1      87.962   1.357  12.759  1.00  0.00    -0.308 N 
ATOM      9  C   UNL     1      86.647   0.848  12.881  1.00  0.00     0.323 C 
ATOM     10  H   UNL     1      88.192   1.787  11.867  1.00  0.00     0.171 HD
ATOM     11  O   UNL     1      86.200   0.300  13.884  1.00  0.00    -0.248 OA
ATOM     12  H   UNL     1      86.438   1.532  10.939  1.00  0.00     0.171 HD
BRANCH   8  13
ATOM     13  C   UNL     1      88.990   1.350  13.704  1.00  0.00     0.043 A 
ATOM     14  Cl  UNL     1      92.317   1.286  16.755  1.00  0.00    -0.084 Cl
ATOM     15  C   UNL     1      91.044   1.335  15.592  1.00  0.00     0.053 A 
ATOM     16  C   UNL     1      90.373   2.522  15.301  1.00  0.00     0.076 A 
ATOM     17  C   UNL     1      90.687   0.154  14.939  1.00  0.00     0.023 A 
ATOM     18  C   UNL     1      89.346   2.530  14.356  1.00  0.00     0.040 A 
ATOM     19  C   UNL     1      89.660   0.162  13.995  1.00  0.00     0.028 A 
BRANCH  16  20
ATOM     20  C   UNL     1      90.724   3.807  15.980  1.00  0.00     0.417 C 
ATOM     21  F   UNL     1      89.960   4.863  15.574  1.00  0.00    -0.166 F 
ATOM     22  F   UNL     1      90.581   3.761  17.336  1.00  0.00    -0.166 F 
ATOM     23  F   UNL     1      92.016   4.179  15.756  1.00  0.00    -0.166 F 
ENDBRANCH  16  20
ENDBRANCH   8  13
ENDBRANCH   1   7
BRANCH   2  24
ATOM     24  O   UNL     1      80.693  -0.330  10.542  1.00  0.00    -0.457 OA
BRANCH  24  25
ATOM     25  C   UNL     1      80.097   0.256   9.438  1.00  0.00     0.131 A 
ATOM     26  C   UNL     1      78.997   1.067   9.617  1.00  0.00     0.081 A 
ATOM     27  C   UNL     1      80.618   0.015   8.185  1.00  0.00     0.067 A 
ATOM     28  C   UNL     1      78.439   1.631   8.481  1.00  0.00     0.131 A 
ATOM     29  C   UNL     1      79.988   0.626   7.113  1.00  0.00     0.116 A 
ATOM     30  N   UNL     1      78.907   1.430   7.229  1.00  0.00    -0.251 NA
BRANCH  28  31
ATOM     31  C   UNL     1      77.278   2.498   8.588  1.00  0.00     0.269 C 
ATOM     32  O   UNL     1      76.359   2.230   9.385  1.00  0.00    -0.268 OA
ATOM     33  N   UNL     1      77.259   3.641   7.780  1.00  0.00    -0.354 N 
ATOM     34  C   UNL     1      76.188   4.611   7.790  1.00  0.00     0.143 C 
ATOM     35  H   UNL     1      78.054   3.823   7.173  1.00  0.00     0.163 HD
ENDBRANCH  28  31
ENDBRANCH  24  25
ENDBRANCH   2  24
TORSDOF 6
ENDMDL
MODEL 18
REMARK VINA RESULT:    -7.110      8.102     10.131
REMARK INTER + INTRA:         -10.465
REMARK INTER:                  -9.902
REMARK INTRA:                  -0.563
REMARK UNBOUND:                -0.861
REMARK SMILES CNC(=O)c1cc(Oc2ccc(NC(=O)Nc3ccc(Cl)c(C(F)(F)F)c3)cc2)ccn1
REMARK SMILES IDX 12 1 9 2 11 3 28 4 10 5 29 6 13 7 16 8 14 9 15 11 17 13
REMARK SMILES IDX 21 14 20 15 22 16 19 17 27 18 18 19 23 20 24 21 25 22 26 23
REMARK SMILES IDX 8 24 7 25 6 26 30 27 5 28 31 29 32 30 3 31 4 32 2 33 1 34
REMARK H PARENT 16 10 13 12 2 35
REMARK Flexibility Score: inf
ROOT
ATOM      1  C   UNL     1      85.417   6.196  12.090  1.00  0.00     0.043 A 
ATOM      2  C   UNL     1      85.886   3.561  11.372  1.00  0.00     0.127 A 
ATOM      3  C   UNL     1      85.625   5.883  10.756  1.00  0.00     0.030 A 
ATOM      4  C   UNL     1      85.440   5.219  13.072  1.00  0.00     0.030 A 
ATOM      5  C   UNL     1      85.860   4.557  10.395  1.00  0.00     0.049 A 
ATOM      6  C   UNL     1      85.676   3.892  12.710  1.00  0.00     0.049 A 
ENDROOT
BRANCH   1   7
ATOM      7  N   UNL     1      85.178   7.541  12.456  1.00  0.00    -0.308 N 
ATOM      8  N   UNL     1      84.284   9.665  12.609  1.00  0.00    -0.308 N 
ATOM      9  C   UNL     1      84.172   8.399  11.985  1.00  0.00     0.323 C 
ATOM     10  H   UNL     1      85.043   9.765  13.278  1.00  0.00     0.171 HD
ATOM     11  O   UNL     1      83.319   8.103  11.154  1.00  0.00    -0.248 OA
ATOM     12  H   UNL     1      85.817   7.925  13.147  1.00  0.00     0.171 HD
BRANCH   8  13
ATOM     13  C   UNL     1      83.491  10.799  12.428  1.00  0.00     0.043 A 
ATOM     14  Cl  UNL     1      80.892  14.443  11.834  1.00  0.00    -0.084 Cl
ATOM     15  C   UNL     1      81.905  13.065  12.065  1.00  0.00     0.053 A 
ATOM     16  C   UNL     1      83.277  13.200  12.273  1.00  0.00     0.076 A 
ATOM     17  C   UNL     1      81.325  11.796  12.037  1.00  0.00     0.023 A 
ATOM     18  C   UNL     1      84.071  12.067  12.455  1.00  0.00     0.040 A 
ATOM     19  C   UNL     1      82.118  10.663  12.219  1.00  0.00     0.028 A 
BRANCH  16  20
ATOM     20  C   UNL     1      83.936  14.542  12.307  1.00  0.00     0.417 C 
ATOM     21  F   UNL     1      83.419  15.378  13.255  1.00  0.00    -0.166 F 
ATOM     22  F   UNL     1      85.273  14.483  12.571  1.00  0.00    -0.166 F 
ATOM     23  F   UNL     1      83.821  15.209  11.124  1.00  0.00    -0.166 F 
ENDBRANCH  16  20
ENDBRANCH   8  13
ENDBRANCH   1   7
BRANCH   2  24
ATOM     24  O   UNL     1      86.118   2.267  11.019  1.00  0.00    -0.457 OA
BRANCH  24  25
ATOM     25  C   UNL     1      85.096   1.579  10.387  1.00  0.00     0.131 A 
ATOM     26  C   UNL     1      83.824   1.626  10.917  1.00  0.00     0.081 A 
ATOM     27  C   UNL     1      85.374   0.864   9.242  1.00  0.00     0.067 A 
ATOM     28  C   UNL     1      82.837   0.922  10.245  1.00  0.00     0.131 A 
ATOM     29  C   UNL     1      84.317   0.195   8.646  1.00  0.00     0.116 A 
ATOM     30  N   UNL     1      83.051   0.205   9.121  1.00  0.00    -0.251 NA
BRANCH  28  31
ATOM     31  C   UNL     1      81.471   0.923  10.742  1.00  0.00     0.269 C 
ATOM     32  O   UNL     1      81.243   0.946  11.966  1.00  0.00    -0.268 OA
ATOM     33  N   UNL     1      80.447   0.921   9.788  1.00  0.00    -0.354 N 
ATOM     34  C   UNL     1      79.041   0.945  10.123  1.00  0.00     0.143 C 
ATOM     35  H   UNL     1      80.697   0.935   8.803  1.00  0.00     0.163 HD
ENDBRANCH  28  31
ENDBRANCH  24  25
ENDBRANCH   2  24
TORSDOF 6
ENDMDL
MODEL 19
REMARK VINA RESULT:    -7.088      6.782      9.842
REMARK INTER + INTRA:         -10.435
REMARK INTER:                  -9.451
REMARK INTRA:                  -0.985
REMARK UNBOUND:                -0.861
REMARK SMILES CNC(=O)c1cc(Oc2ccc(NC(=O)Nc3ccc(Cl)c(C(F)(F)F)c3)cc2)ccn1
REMARK SMILES IDX 12 1 9 2 11 3 28 4 10 5 29 6 13 7 16 8 14 9 15 11 17 13
REMARK SMILES IDX 21 14 20 15 22 16 19 17 27 18 18 19 23 20 24 21 25 22 26 23
REMARK SMILES IDX 8 24 7 25 6 26 30 27 5 28 31 29 32 30 3 31 4 32 2 33 1 34
REMARK H PARENT 16 10 13 12 2 35
REMARK Flexibility Score: inf
ROOT
ATOM      1  C   UNL     1      86.049   3.181  11.076  1.00  0.00     0.043 A 
ATOM      2  C   UNL     1      86.992   0.742  11.992  1.00  0.00     0.127 A 
ATOM      3  C   UNL     1      85.315   2.481  12.020  1.00  0.00     0.030 A 
ATOM      4  C   UNL     1      87.244   2.687  10.580  1.00  0.00     0.030 A 
ATOM      5  C   UNL     1      85.790   1.254  12.481  1.00  0.00     0.049 A 
ATOM      6  C   UNL     1      87.719   1.459  11.042  1.00  0.00     0.049 A 
ENDROOT
BRANCH   1   7
ATOM      7  N   UNL     1      85.568   4.426  10.609  1.00  0.00    -0.308 N 
ATOM      8  N   UNL     1      84.938   6.645  10.477  1.00  0.00    -0.308 N 
ATOM      9  C   UNL     1      85.477   5.638  11.314  1.00  0.00     0.323 C 
ATOM     10  H   UNL     1      84.706   6.358   9.530  1.00  0.00     0.171 HD
ATOM     11  O   UNL     1      85.812   5.805  12.482  1.00  0.00    -0.248 OA
ATOM     12  H   UNL     1      85.251   4.437   9.643  1.00  0.00     0.171 HD
BRANCH   8  13
ATOM     13  C   UNL     1      84.682   7.983  10.779  1.00  0.00     0.043 A 
ATOM     14  Cl  UNL     1      83.889  12.323  11.738  1.00  0.00    -0.084 Cl
ATOM     15  C   UNL     1      84.171  10.658  11.383  1.00  0.00     0.053 A 
ATOM     16  C   UNL     1      83.315   9.662  11.850  1.00  0.00     0.076 A 
ATOM     17  C   UNL     1      85.284  10.317  10.613  1.00  0.00     0.023 A 
ATOM     18  C   UNL     1      83.570   8.324  11.548  1.00  0.00     0.040 A 
ATOM     19  C   UNL     1      85.540   8.979  10.311  1.00  0.00     0.028 A 
BRANCH  16  20
ATOM     20  C   UNL     1      82.114   9.986  12.679  1.00  0.00     0.417 C 
ATOM     21  F   UNL     1      82.416  10.607  13.856  1.00  0.00    -0.166 F 
ATOM     22  F   UNL     1      81.230  10.816  12.053  1.00  0.00    -0.166 F 
ATOM     23  F   UNL     1      81.400   8.875  13.021  1.00  0.00    -0.166 F 
ENDBRANCH  16  20
ENDBRANCH   8  13
ENDBRANCH   1   7
BRANCH   2  24
ATOM     24  O   UNL     1      87.455  -0.457  12.440  1.00  0.00    -0.457 OA
BRANCH  24  25
ATOM     25  C   UNL     1      87.435  -1.524  11.559  1.00  0.00     0.131 A 
ATOM     26  C   UNL     1      86.286  -1.787  10.843  1.00  0.00     0.081 A 
ATOM     27  C   UNL     1      88.565  -2.300  11.416  1.00  0.00     0.067 A 
ATOM     28  C   UNL     1      86.319  -2.865   9.973  1.00  0.00     0.131 A 
ATOM     29  C   UNL     1      88.496  -3.355  10.520  1.00  0.00     0.116 A 
ATOM     30  N   UNL     1      87.397  -3.659   9.793  1.00  0.00    -0.251 NA
BRANCH  28  31
ATOM     31  C   UNL     1      85.147  -3.205   9.184  1.00  0.00     0.269 C 
ATOM     32  O   UNL     1      85.270  -3.632   8.021  1.00  0.00    -0.268 OA
ATOM     33  N   UNL     1      83.899  -3.052   9.799  1.00  0.00    -0.354 N 
ATOM     34  C   UNL     1      82.645  -3.370   9.155  1.00  0.00     0.143 C 
ATOM     35  H   UNL     1      83.865  -2.730  10.763  1.00  0.00     0.163 HD
ENDBRANCH  28  31
ENDBRANCH  24  25
ENDBRANCH   2  24
TORSDOF 6
ENDMDL
MODEL 20
REMARK VINA RESULT:    -7.063      6.849     11.452
REMARK INTER + INTRA:         -10.402
REMARK INTER:                  -9.541
REMARK INTRA:                  -0.861
REMARK UNBOUND:                -0.861
REMARK SMILES CNC(=O)c1cc(Oc2ccc(NC(=O)Nc3ccc(Cl)c(C(F)(F)F)c3)cc2)ccn1
REMARK SMILES IDX 12 1 9 2 11 3 28 4 10 5 29 6 13 7 16 8 14 9 15 11 17 13
REMARK SMILES IDX 21 14 20 15 22 16 19 17 27 18 18 19 23 20 24 21 25 22 26 23
REMARK SMILES IDX 8 24 7 25 6 26 30 27 5 28 31 29 32 30 3 31 4 32 2 33 1 34
REMARK H PARENT 16 10 13 12 2 35
REMARK Flexibility Score: inf
ROOT
ATOM      1  C   UNL     1      81.248   0.624   9.888  1.00  0.00     0.043 A 
ATOM      2  C   UNL     1      83.581   1.983  10.506  1.00  0.00     0.127 A 
ATOM      3  C   UNL     1      81.606   0.787  11.217  1.00  0.00     0.030 A 
ATOM      4  C   UNL     1      82.033   1.125   8.862  1.00  0.00     0.030 A 
ATOM      5  C   UNL     1      82.780   1.472  11.528  1.00  0.00     0.049 A 
ATOM      6  C   UNL     1      83.208   1.810   9.174  1.00  0.00     0.049 A 
ENDROOT
BRANCH   1   7
ATOM      7  N   UNL     1      80.057  -0.070   9.573  1.00  0.00    -0.308 N 
ATOM      8  N   UNL     1      78.554  -1.646   8.802  1.00  0.00    -0.308 N 
ATOM      9  C   UNL     1      79.923  -1.306   8.920  1.00  0.00     0.323 C 
ATOM     10  H   UNL     1      77.895  -0.976   9.189  1.00  0.00     0.171 HD
ATOM     11  O   UNL     1      80.853  -1.995   8.509  1.00  0.00    -0.248 OA
ATOM     12  H   UNL     1      79.196   0.389   9.858  1.00  0.00     0.171 HD
BRANCH   8  13
ATOM     13  C   UNL     1      77.985  -2.781   8.222  1.00  0.00     0.043 A 
ATOM     14  Cl  UNL     1      76.130  -6.429   6.316  1.00  0.00    -0.084 Cl
ATOM     15  C   UNL     1      76.847  -5.049   7.064  1.00  0.00     0.053 A 
ATOM     16  C   UNL     1      77.438  -5.132   8.323  1.00  0.00     0.076 A 
ATOM     17  C   UNL     1      76.824  -3.831   6.383  1.00  0.00     0.023 A 
ATOM     18  C   UNL     1      78.008  -3.998   8.904  1.00  0.00     0.040 A 
ATOM     19  C   UNL     1      77.393  -2.697   6.962  1.00  0.00     0.028 A 
BRANCH  16  20
ATOM     20  C   UNL     1      77.482  -6.417   9.086  1.00  0.00     0.417 C 
ATOM     21  F   UNL     1      76.246  -6.926   9.365  1.00  0.00    -0.166 F 
ATOM     22  F   UNL     1      78.141  -7.416   8.431  1.00  0.00    -0.166 F 
ATOM     23  F   UNL     1      78.108  -6.288  10.290  1.00  0.00    -0.166 F 
ENDBRANCH  16  20
ENDBRANCH   8  13
ENDBRANCH   1   7
BRANCH   2  24
ATOM     24  O   UNL     1      84.729   2.650  10.810  1.00  0.00    -0.457 OA
BRANCH  24  25
ATOM     25  C   UNL     1      85.569   2.087  11.756  1.00  0.00     0.131 A 
ATOM     26  C   UNL     1      85.943   0.767  11.625  1.00  0.00     0.081 A 
ATOM     27  C   UNL     1      86.012   2.860  12.808  1.00  0.00     0.067 A 
ATOM     28  C   UNL     1      86.786   0.252  12.597  1.00  0.00     0.131 A 
ATOM     29  C   UNL     1      86.851   2.251  13.727  1.00  0.00     0.116 A 
ATOM     30  N   UNL     1      87.251   0.962  13.649  1.00  0.00    -0.251 NA
BRANCH  28  31
ATOM     31  C   UNL     1      87.225  -1.132  12.527  1.00  0.00     0.269 C 
ATOM     32  O   UNL     1      87.028  -1.807  11.500  1.00  0.00    -0.268 OA
ATOM     33  N   UNL     1      87.890  -1.646  13.647  1.00  0.00    -0.354 N 
ATOM     34  C   UNL     1      88.407  -2.994  13.721  1.00  0.00     0.143 C 
ATOM     35  H   UNL     1      88.050  -1.035  14.443  1.00  0.00     0.163 HD
ENDBRANCH  28  31
ENDBRANCH  24  25
ENDBRANCH   2  24
TORSDOF 6
ENDMDL
