MODEL 1
REMARK VINA RESULT:    -7.702      0.000      0.000
REMARK INTER + INTRA:         -11.085
REMARK INTER:                 -10.074
REMARK INTRA:                  -1.011
REMARK UNBOUND:                -0.681
REMARK SMILES CNC(=O)c1cc(Oc2ccc(NC(=O)Nc3ccc(Cl)c(C(F)(F)F)c3)cc2)ccn1
REMARK SMILES IDX 12 1 9 2 11 3 28 4 10 5 29 6 13 7 16 8 14 9 15 11 17 13
REMARK SMILES IDX 21 14 20 15 22 16 19 17 27 18 18 19 23 20 24 21 25 22 26 23
REMARK SMILES IDX 8 24 7 25 6 26 30 27 5 28 31 29 32 30 3 31 4 32 2 33 1 34
REMARK H PARENT 16 10 13 12 2 35
REMARK Flexibility Score: inf
ROOT
ATOM      1  C   UNL     1      97.421 -10.566  24.222  1.00  0.00     0.043 A 
ATOM      2  C   UNL     1      99.666  -9.438  25.387  1.00  0.00     0.127 A 
ATOM      3  C   UNL     1      98.676 -11.009  23.841  1.00  0.00     0.030 A 
ATOM      4  C   UNL     1      97.264  -9.572  25.174  1.00  0.00     0.030 A 
ATOM      5  C   UNL     1      99.808 -10.441  24.428  1.00  0.00     0.049 A 
ATOM      6  C   UNL     1      98.395  -9.004  25.760  1.00  0.00     0.049 A 
ENDROOT
BRANCH   1   7
ATOM      7  N   UNL     1      96.274 -11.143  23.627  1.00  0.00    -0.308 N 
ATOM      8  N   UNL     1      94.412 -12.450  23.225  1.00  0.00    -0.308 N 
ATOM      9  C   UNL     1      95.459 -12.168  24.135  1.00  0.00     0.323 C 
ATOM     10  H   UNL     1      94.402 -11.895  22.372  1.00  0.00     0.171 HD
ATOM     11  O   UNL     1      95.625 -12.739  25.208  1.00  0.00    -0.248 OA
ATOM     12  H   UNL     1      96.014 -10.762  22.721  1.00  0.00     0.171 HD
BRANCH   8  13
ATOM     13  C   UNL     1      93.389 -13.392  23.339  1.00  0.00     0.043 A 
ATOM     14  Cl  UNL     1      90.104 -16.468  23.693  1.00  0.00    -0.084 Cl
ATOM     15  C   UNL     1      91.345 -15.276  23.567  1.00  0.00     0.053 A 
ATOM     16  C   UNL     1      91.118 -13.952  23.942  1.00  0.00     0.076 A 
ATOM     17  C   UNL     1      92.594 -15.658  23.079  1.00  0.00     0.023 A 
ATOM     18  C   UNL     1      92.140 -13.009  23.828  1.00  0.00     0.040 A 
ATOM     19  C   UNL     1      93.617 -14.716  22.964  1.00  0.00     0.028 A 
BRANCH  16  20
ATOM     20  C   UNL     1      89.793 -13.501  24.469  1.00  0.00     0.417 C 
ATOM     21  F   UNL     1      88.765 -13.695  23.594  1.00  0.00    -0.166 F 
ATOM     22  F   UNL     1      89.417 -14.143  25.613  1.00  0.00    -0.166 F 
ATOM     23  F   UNL     1      89.776 -12.171  24.770  1.00  0.00    -0.166 F 
ENDBRANCH  16  20
ENDBRANCH   8  13
ENDBRANCH   1   7
BRANCH   2  24
ATOM     24  O   UNL     1     100.770  -8.884  25.959  1.00  0.00    -0.457 OA
BRANCH  24  25
ATOM     25  C   UNL     1     101.111  -7.595  25.584  1.00  0.00     0.131 A 
ATOM     26  C   UNL     1     101.114  -7.260  24.247  1.00  0.00     0.081 A 
ATOM     27  C   UNL     1     101.436  -6.674  26.557  1.00  0.00     0.067 A 
ATOM     28  C   UNL     1     101.460  -5.958  23.924  1.00  0.00     0.131 A 
ATOM     29  C   UNL     1     101.768  -5.398  26.132  1.00  0.00     0.116 A 
ATOM     30  N   UNL     1     101.788  -5.015  24.835  1.00  0.00    -0.251 NA
BRANCH  28  31
ATOM     31  C   UNL     1     101.487  -5.531  22.536  1.00  0.00     0.269 C 
ATOM     32  O   UNL     1     100.765  -4.594  22.147  1.00  0.00    -0.268 OA
ATOM     33  N   UNL     1     102.369  -6.201  21.680  1.00  0.00    -0.354 N 
ATOM     34  C   UNL     1     102.528  -5.878  20.281  1.00  0.00     0.143 C 
ATOM     35  H   UNL     1     102.956  -6.938  22.063  1.00  0.00     0.163 HD
ENDBRANCH  28  31
ENDBRANCH  24  25
ENDBRANCH   2  24
TORSDOF 6
ENDMDL
MODEL 2
REMARK VINA RESULT:    -7.065      1.792      2.257
REMARK INTER + INTRA:         -10.223
REMARK INTER:                  -9.274
REMARK INTRA:                  -0.949
REMARK UNBOUND:                -0.681
REMARK SMILES CNC(=O)c1cc(Oc2ccc(NC(=O)Nc3ccc(Cl)c(C(F)(F)F)c3)cc2)ccn1
REMARK SMILES IDX 12 1 9 2 11 3 28 4 10 5 29 6 13 7 16 8 14 9 15 11 17 13
REMARK SMILES IDX 21 14 20 15 22 16 19 17 27 18 18 19 23 20 24 21 25 22 26 23
REMARK SMILES IDX 8 24 7 25 6 26 30 27 5 28 31 29 32 30 3 31 4 32 2 33 1 34
REMARK H PARENT 16 10 13 12 2 35
REMARK Flexibility Score: inf
ROOT
ATOM      1  C   UNL     1      97.279 -10.573  24.417  1.00  0.00     0.043 A 
ATOM      2  C   UNL     1      99.556  -9.454  25.528  1.00  0.00     0.127 A 
ATOM      3  C   UNL     1      98.521 -11.074  24.065  1.00  0.00     0.030 A 
ATOM      4  C   UNL     1      97.151  -9.525  25.314  1.00  0.00     0.030 A 
ATOM      5  C   UNL     1      99.669 -10.510  24.624  1.00  0.00     0.049 A 
ATOM      6  C   UNL     1      98.297  -8.961  25.873  1.00  0.00     0.049 A 
ENDROOT
BRANCH   1   7
ATOM      7  N   UNL     1      96.116 -11.145  23.849  1.00  0.00    -0.308 N 
ATOM      8  N   UNL     1      94.329 -12.540  23.404  1.00  0.00    -0.308 N 
ATOM      9  C   UNL     1      95.458 -12.325  24.233  1.00  0.00     0.323 C 
ATOM     10  H   UNL     1      94.168 -11.842  22.683  1.00  0.00     0.171 HD
ATOM     11  O   UNL     1      95.802 -13.063  25.149  1.00  0.00    -0.248 OA
ATOM     12  H   UNL     1      95.714 -10.633  23.068  1.00  0.00     0.171 HD
BRANCH   8  13
ATOM     13  C   UNL     1      93.408 -13.587  23.443  1.00  0.00     0.043 A 
ATOM     14  Cl  UNL     1      90.416 -16.964  23.606  1.00  0.00    -0.084 Cl
ATOM     15  C   UNL     1      91.566 -15.680  23.521  1.00  0.00     0.053 A 
ATOM     16  C   UNL     1      92.387 -15.515  22.406  1.00  0.00     0.076 A 
ATOM     17  C   UNL     1      91.666 -14.799  24.597  1.00  0.00     0.023 A 
ATOM     18  C   UNL     1      93.308 -14.469  22.366  1.00  0.00     0.040 A 
ATOM     19  C   UNL     1      92.587 -13.752  24.558  1.00  0.00     0.028 A 
BRANCH  16  20
ATOM     20  C   UNL     1      92.312 -16.439  21.233  1.00  0.00     0.417 C 
ATOM     21  F   UNL     1      92.547 -17.744  21.552  1.00  0.00    -0.166 F 
ATOM     22  F   UNL     1      91.096 -16.434  20.614  1.00  0.00    -0.166 F 
ATOM     23  F   UNL     1      93.221 -16.126  20.264  1.00  0.00    -0.166 F 
ENDBRANCH  16  20
ENDBRANCH   8  13
ENDBRANCH   1   7
BRANCH   2  24
ATOM     24  O   UNL     1     100.675  -8.903  26.074  1.00  0.00    -0.457 OA
BRANCH  24  25
ATOM     25  C   UNL     1     101.017  -7.620  25.683  1.00  0.00     0.131 A 
ATOM     26  C   UNL     1     101.055  -7.311  24.340  1.00  0.00     0.081 A 
ATOM     27  C   UNL     1     101.310  -6.678  26.647  1.00  0.00     0.067 A 
ATOM     28  C   UNL     1     101.401  -6.012  24.002  1.00  0.00     0.131 A 
ATOM     29  C   UNL     1     101.645  -5.408  26.206  1.00  0.00     0.116 A 
ATOM     30  N   UNL     1     101.698  -5.050  24.902  1.00  0.00    -0.251 NA
BRANCH  28  31
ATOM     31  C   UNL     1     101.463  -5.612  22.607  1.00  0.00     0.269 C 
ATOM     32  O   UNL     1     100.744  -4.690  22.180  1.00  0.00    -0.268 OA
ATOM     33  N   UNL     1     102.376  -6.290  21.790  1.00  0.00    -0.354 N 
ATOM     34  C   UNL     1     102.571  -5.992  20.390  1.00  0.00     0.143 C 
ATOM     35  H   UNL     1     102.959  -7.013  22.204  1.00  0.00     0.163 HD
ENDBRANCH  28  31
ENDBRANCH  24  25
ENDBRANCH   2  24
TORSDOF 6
ENDMDL
MODEL 3
REMARK VINA RESULT:    -7.009      1.182      1.706
REMARK INTER + INTRA:         -10.148
REMARK INTER:                  -9.043
REMARK INTRA:                  -1.106
REMARK UNBOUND:                -0.681
REMARK SMILES CNC(=O)c1cc(Oc2ccc(NC(=O)Nc3ccc(Cl)c(C(F)(F)F)c3)cc2)ccn1
REMARK SMILES IDX 12 1 9 2 11 3 28 4 10 5 29 6 13 7 16 8 14 9 15 11 17 13
REMARK SMILES IDX 21 14 20 15 22 16 19 17 27 18 18 19 23 20 24 21 25 22 26 23
REMARK SMILES IDX 8 24 7 25 6 26 30 27 5 28 31 29 32 30 3 31 4 32 2 33 1 34
REMARK H PARENT 16 10 13 12 2 35
REMARK Flexibility Score: inf
ROOT
ATOM      1  C   UNL     1      97.029 -11.262  24.569  1.00  0.00     0.043 A 
ATOM      2  C   UNL     1      99.261 -10.488  26.013  1.00  0.00     0.127 A 
ATOM      3  C   UNL     1      96.882 -10.365  25.614  1.00  0.00     0.030 A 
ATOM      4  C   UNL     1      98.268 -11.779  24.230  1.00  0.00     0.030 A 
ATOM      5  C   UNL     1      98.007  -9.975  26.342  1.00  0.00     0.049 A 
ATOM      6  C   UNL     1      99.393 -11.390  24.957  1.00  0.00     0.049 A 
ENDROOT
BRANCH   1   7
ATOM      7  N   UNL     1      95.888 -11.658  23.832  1.00  0.00    -0.308 N 
ATOM      8  N   UNL     1      93.994 -12.770  23.116  1.00  0.00    -0.308 N 
ATOM      9  C   UNL     1      95.008 -12.719  24.103  1.00  0.00     0.323 C 
ATOM     10  H   UNL     1      94.048 -12.064  22.386  1.00  0.00     0.171 HD
ATOM     11  O   UNL     1      95.099 -13.490  25.052  1.00  0.00    -0.248 OA
ATOM     12  H   UNL     1      95.687 -11.100  23.005  1.00  0.00     0.171 HD
BRANCH   8  13
ATOM     13  C   UNL     1      92.928 -13.664  23.009  1.00  0.00     0.043 A 
ATOM     14  Cl  UNL     1      89.505 -16.585  22.645  1.00  0.00    -0.084 Cl
ATOM     15  C   UNL     1      90.799 -15.453  22.795  1.00  0.00     0.053 A 
ATOM     16  C   UNL     1      90.589 -14.179  23.322  1.00  0.00     0.076 A 
ATOM     17  C   UNL     1      92.073 -15.832  22.374  1.00  0.00     0.023 A 
ATOM     18  C   UNL     1      91.653 -13.284  23.430  1.00  0.00     0.040 A 
ATOM     19  C   UNL     1      93.138 -14.938  22.482  1.00  0.00     0.028 A 
BRANCH  16  20
ATOM     20  C   UNL     1      89.238 -13.732  23.782  1.00  0.00     0.417 C 
ATOM     21  F   UNL     1      88.711 -14.518  24.765  1.00  0.00    -0.166 F 
ATOM     22  F   UNL     1      89.228 -12.466  24.291  1.00  0.00    -0.166 F 
ATOM     23  F   UNL     1      88.317 -13.733  22.775  1.00  0.00    -0.166 F 
ENDBRANCH  16  20
ENDBRANCH   8  13
ENDBRANCH   1   7
BRANCH   2  24
ATOM     24  O   UNL     1     100.359 -10.107  26.724  1.00  0.00    -0.457 OA
BRANCH  24  25
ATOM     25  C   UNL     1     100.705  -8.767  26.705  1.00  0.00     0.131 A 
ATOM     26  C   UNL     1     100.955  -8.152  25.497  1.00  0.00     0.081 A 
ATOM     27  C   UNL     1     100.790  -8.076  27.895  1.00  0.00     0.067 A 
ATOM     28  C   UNL     1     101.296  -6.809  25.531  1.00  0.00     0.131 A 
ATOM     29  C   UNL     1     101.138  -6.737  27.823  1.00  0.00     0.116 A 
ATOM     30  N   UNL     1     101.394  -6.083  26.667  1.00  0.00    -0.251 NA
BRANCH  28  31
ATOM     31  C   UNL     1     101.574  -6.093  24.299  1.00  0.00     0.269 C 
ATOM     32  O   UNL     1     101.645  -4.850  24.290  1.00  0.00    -0.268 OA
ATOM     33  N   UNL     1     101.779  -6.863  23.147  1.00  0.00    -0.354 N 
ATOM     34  C   UNL     1     102.087  -6.301  21.853  1.00  0.00     0.143 C 
ATOM     35  H   UNL     1     101.739  -7.876  23.224  1.00  0.00     0.163 HD
ENDBRANCH  28  31
ENDBRANCH  24  25
ENDBRANCH   2  24
TORSDOF 6
ENDMDL
MODEL 4
REMARK VINA RESULT:    -6.923     19.222     22.303
REMARK INTER + INTRA:         -10.032
REMARK INTER:                  -9.161
REMARK INTRA:                  -0.871
REMARK UNBOUND:                -0.681
REMARK SMILES CNC(=O)c1cc(Oc2ccc(NC(=O)Nc3ccc(Cl)c(C(F)(F)F)c3)cc2)ccn1
REMARK SMILES IDX 12 1 9 2 11 3 28 4 10 5 29 6 13 7 16 8 14 9 15 11 17 13
REMARK SMILES IDX 21 14 20 15 22 16 19 17 27 18 18 19 23 20 24 21 25 22 26 23
REMARK SMILES IDX 8 24 7 25 6 26 30 27 5 28 31 29 32 30 3 31 4 32 2 33 1 34
REMARK H PARENT 16 10 13 12 2 35
REMARK Flexibility Score: inf
ROOT
ATOM      1  C   UNL     1      96.048   9.798  19.590  1.00  0.00     0.043 A 
ATOM      2  C   UNL     1      97.404  11.441  17.821  1.00  0.00     0.127 A 
ATOM      3  C   UNL     1      97.344  10.185  19.883  1.00  0.00     0.030 A 
ATOM      4  C   UNL     1      95.414  10.216  18.432  1.00  0.00     0.030 A 
ATOM      5  C   UNL     1      98.028  11.012  18.992  1.00  0.00     0.049 A 
ATOM      6  C   UNL     1      96.097  11.043  17.540  1.00  0.00     0.049 A 
ENDROOT
BRANCH   1   7
ATOM      7  N   UNL     1      95.355   8.959  20.494  1.00  0.00    -0.308 N 
ATOM      8  N   UNL     1      93.967   8.182  22.170  1.00  0.00    -0.308 N 
ATOM      9  C   UNL     1      94.429   9.331  21.483  1.00  0.00     0.323 C 
ATOM     10  H   UNL     1      94.357   7.294  21.864  1.00  0.00     0.171 HD
ATOM     11  O   UNL     1      94.068  10.478  21.720  1.00  0.00    -0.248 OA
ATOM     12  H   UNL     1      95.558   7.965  20.412  1.00  0.00     0.171 HD
BRANCH   8  13
ATOM     13  C   UNL     1      93.049   8.104  23.217  1.00  0.00     0.043 A 
ATOM     14  Cl  UNL     1      90.098   7.880  26.628  1.00  0.00    -0.084 Cl
ATOM     15  C   UNL     1      91.213   7.951  25.311  1.00  0.00     0.053 A 
ATOM     16  C   UNL     1      91.030   7.177  24.165  1.00  0.00     0.076 A 
ATOM     17  C   UNL     1      92.313   8.801  25.410  1.00  0.00     0.023 A 
ATOM     18  C   UNL     1      91.947   7.254  23.118  1.00  0.00     0.040 A 
ATOM     19  C   UNL     1      93.232   8.878  24.363  1.00  0.00     0.028 A 
BRANCH  16  20
ATOM     20  C   UNL     1      89.864   6.252  24.021  1.00  0.00     0.417 C 
ATOM     21  F   UNL     1      89.725   5.384  25.064  1.00  0.00    -0.166 F 
ATOM     22  F   UNL     1      88.666   6.898  23.928  1.00  0.00    -0.166 F 
ATOM     23  F   UNL     1      89.951   5.474  22.903  1.00  0.00    -0.166 F 
ENDBRANCH  16  20
ENDBRANCH   8  13
ENDBRANCH   1   7
BRANCH   2  24
ATOM     24  O   UNL     1      98.071  12.248  16.951  1.00  0.00    -0.457 OA
BRANCH  24  25
ATOM     25  C   UNL     1      97.636  13.556  16.823  1.00  0.00     0.131 A 
ATOM     26  C   UNL     1      97.080  13.968  15.630  1.00  0.00     0.081 A 
ATOM     27  C   UNL     1      97.766  14.417  17.891  1.00  0.00     0.067 A 
ATOM     28  C   UNL     1      96.658  15.286  15.554  1.00  0.00     0.131 A 
ATOM     29  C   UNL     1      97.314  15.715  17.714  1.00  0.00     0.116 A 
ATOM     30  N   UNL     1      96.761  16.173  16.568  1.00  0.00    -0.251 NA
BRANCH  28  31
ATOM     31  C   UNL     1      96.063  15.793  14.330  1.00  0.00     0.269 C 
ATOM     32  O   UNL     1      95.055  15.249  13.842  1.00  0.00    -0.268 OA
ATOM     33  N   UNL     1      96.658  16.921  13.752  1.00  0.00    -0.354 N 
ATOM     34  C   UNL     1      96.170  17.557  12.550  1.00  0.00     0.143 C 
ATOM     35  H   UNL     1      97.461  17.341  14.214  1.00  0.00     0.163 HD
ENDBRANCH  28  31
ENDBRANCH  24  25
ENDBRANCH   2  24
TORSDOF 6
ENDMDL
MODEL 5
REMARK VINA RESULT:    -6.914      1.929      2.983
REMARK INTER + INTRA:         -10.020
REMARK INTER:                  -9.026
REMARK INTRA:                  -0.994
REMARK UNBOUND:                -0.681
REMARK SMILES CNC(=O)c1cc(Oc2ccc(NC(=O)Nc3ccc(Cl)c(C(F)(F)F)c3)cc2)ccn1
REMARK SMILES IDX 12 1 9 2 11 3 28 4 10 5 29 6 13 7 16 8 14 9 15 11 17 13
REMARK SMILES IDX 21 14 20 15 22 16 19 17 27 18 18 19 23 20 24 21 25 22 26 23
REMARK SMILES IDX 8 24 7 25 6 26 30 27 5 28 31 29 32 30 3 31 4 32 2 33 1 34
REMARK H PARENT 16 10 13 12 2 35
REMARK Flexibility Score: inf
ROOT
ATOM      1  C   UNL     1      97.267 -11.425  23.468  1.00  0.00     0.043 A 
ATOM      2  C   UNL     1      99.978 -11.140  22.979  1.00  0.00     0.127 A 
ATOM      3  C   UNL     1      98.156 -11.480  24.528  1.00  0.00     0.030 A 
ATOM      4  C   UNL     1      97.704 -11.230  22.168  1.00  0.00     0.030 A 
ATOM      5  C   UNL     1      99.521 -11.336  24.282  1.00  0.00     0.049 A 
ATOM      6  C   UNL     1      99.069 -11.086  21.922  1.00  0.00     0.049 A 
ENDROOT
BRANCH   1   7
ATOM      7  N   UNL     1      95.882 -11.571  23.718  1.00  0.00    -0.308 N 
ATOM      8  N   UNL     1      93.727 -12.399  23.815  1.00  0.00    -0.308 N 
ATOM      9  C   UNL     1      95.052 -12.653  23.383  1.00  0.00     0.323 C 
ATOM     10  H   UNL     1      93.575 -11.509  24.283  1.00  0.00     0.171 HD
ATOM     11  O   UNL     1      95.414 -13.671  22.803  1.00  0.00    -0.248 OA
ATOM     12  H   UNL     1      95.440 -10.791  24.200  1.00  0.00     0.171 HD
BRANCH   8  13
ATOM     13  C   UNL     1      92.598 -13.208  23.682  1.00  0.00     0.043 A 
ATOM     14  Cl  UNL     1      88.960 -15.851  23.277  1.00  0.00    -0.084 Cl
ATOM     15  C   UNL     1      90.341 -14.825  23.417  1.00  0.00     0.053 A 
ATOM     16  C   UNL     1      90.448 -13.649  22.674  1.00  0.00     0.076 A 
ATOM     17  C   UNL     1      91.362 -15.192  24.292  1.00  0.00     0.023 A 
ATOM     18  C   UNL     1      91.576 -12.840  22.806  1.00  0.00     0.040 A 
ATOM     19  C   UNL     1      92.491 -14.383  24.425  1.00  0.00     0.028 A 
BRANCH  16  20
ATOM     20  C   UNL     1      89.376 -13.221  21.724  1.00  0.00     0.417 C 
ATOM     21  F   UNL     1      89.072 -14.163  20.785  1.00  0.00    -0.166 F 
ATOM     22  F   UNL     1      88.192 -12.929  22.336  1.00  0.00    -0.166 F 
ATOM     23  F   UNL     1      89.715 -12.100  21.025  1.00  0.00    -0.166 F 
ENDBRANCH  16  20
ENDBRANCH   8  13
ENDBRANCH   1   7
BRANCH   2  24
ATOM     24  O   UNL     1     101.310 -11.001  22.739  1.00  0.00    -0.457 OA
BRANCH  24  25
ATOM     25  C   UNL     1     101.760  -9.767  22.298  1.00  0.00     0.131 A 
ATOM     26  C   UNL     1     101.523  -8.649  23.069  1.00  0.00     0.081 A 
ATOM     27  C   UNL     1     102.436  -9.685  21.100  1.00  0.00     0.067 A 
ATOM     28  C   UNL     1     101.994  -7.439  22.585  1.00  0.00     0.131 A 
ATOM     29  C   UNL     1     102.866  -8.430  20.703  1.00  0.00     0.116 A 
ATOM     30  N   UNL     1     102.662  -7.300  21.418  1.00  0.00    -0.251 NA
BRANCH  28  31
ATOM     31  C   UNL     1     101.783  -6.217  23.340  1.00  0.00     0.269 C 
ATOM     32  O   UNL     1     101.036  -5.322  22.903  1.00  0.00    -0.268 OA
ATOM     33  N   UNL     1     102.435  -6.111  24.575  1.00  0.00    -0.354 N 
ATOM     34  C   UNL     1     102.307  -4.970  25.452  1.00  0.00     0.143 C 
ATOM     35  H   UNL     1     103.009  -6.888  24.893  1.00  0.00     0.163 HD
ENDBRANCH  28  31
ENDBRANCH  24  25
ENDBRANCH   2  24
TORSDOF 6
ENDMDL
MODEL 6
REMARK VINA RESULT:    -6.788     19.152     22.140
REMARK INTER + INTRA:          -9.850
REMARK INTER:                  -8.896
REMARK INTRA:                  -0.955
REMARK UNBOUND:                -0.681
REMARK SMILES CNC(=O)c1cc(Oc2ccc(NC(=O)Nc3ccc(Cl)c(C(F)(F)F)c3)cc2)ccn1
REMARK SMILES IDX 12 1 9 2 11 3 28 4 10 5 29 6 13 7 16 8 14 9 15 11 17 13
REMARK SMILES IDX 21 14 20 15 22 16 19 17 27 18 18 19 23 20 24 21 25 22 26 23
REMARK SMILES IDX 8 24 7 25 6 26 30 27 5 28 31 29 32 30 3 31 4 32 2 33 1 34
REMARK H PARENT 16 10 13 12 2 35
REMARK Flexibility Score: inf
ROOT
ATOM      1  C   UNL     1      95.911   9.651  20.110  1.00  0.00     0.043 A 
ATOM      2  C   UNL     1      97.129  11.077  18.072  1.00  0.00     0.127 A 
ATOM      3  C   UNL     1      97.141  10.243  20.339  1.00  0.00     0.030 A 
ATOM      4  C   UNL     1      95.275   9.757  18.884  1.00  0.00     0.030 A 
ATOM      5  C   UNL     1      97.755  10.961  19.313  1.00  0.00     0.049 A 
ATOM      6  C   UNL     1      95.889  10.475  17.857  1.00  0.00     0.049 A 
ENDROOT
BRANCH   1   7
ATOM      7  N   UNL     1      95.289   8.922  21.151  1.00  0.00    -0.308 N 
ATOM      8  N   UNL     1      93.856   8.265  22.841  1.00  0.00    -0.308 N 
ATOM      9  C   UNL     1      94.148   9.275  21.892  1.00  0.00     0.323 C 
ATOM     10  H   UNL     1      94.487   7.468  22.850  1.00  0.00     0.171 HD
ATOM     11  O   UNL     1      93.497  10.303  21.743  1.00  0.00    -0.248 OA
ATOM     12  H   UNL     1      95.728   8.035  21.387  1.00  0.00     0.171 HD
BRANCH   8  13
ATOM     13  C   UNL     1      92.817   8.219  23.771  1.00  0.00     0.043 A 
ATOM     14  Cl  UNL     1      89.474   8.098  26.802  1.00  0.00    -0.084 Cl
ATOM     15  C   UNL     1      90.740   8.128  25.630  1.00  0.00     0.053 A 
ATOM     16  C   UNL     1      90.724   7.278  24.525  1.00  0.00     0.076 A 
ATOM     17  C   UNL     1      91.795   9.023  25.806  1.00  0.00     0.023 A 
ATOM     18  C   UNL     1      91.762   7.323  23.594  1.00  0.00     0.040 A 
ATOM     19  C   UNL     1      92.833   9.070  24.876  1.00  0.00     0.028 A 
BRANCH  16  20
ATOM     20  C   UNL     1      89.614   6.302  24.301  1.00  0.00     0.417 C 
ATOM     21  F   UNL     1      89.404   5.464  25.356  1.00  0.00    -0.166 F 
ATOM     22  F   UNL     1      88.407   6.896  24.068  1.00  0.00    -0.166 F 
ATOM     23  F   UNL     1      89.839   5.493  23.226  1.00  0.00    -0.166 F 
ENDBRANCH  16  20
ENDBRANCH   8  13
ENDBRANCH   1   7
BRANCH   2  24
ATOM     24  O   UNL     1      97.728  11.778  17.071  1.00  0.00    -0.457 OA
BRANCH  24  25
ATOM     25  C   UNL     1      97.155  12.980  16.694  1.00  0.00     0.131 A 
ATOM     26  C   UNL     1      97.390  14.107  17.454  1.00  0.00     0.081 A 
ATOM     27  C   UNL     1      96.363  13.026  15.566  1.00  0.00     0.067 A 
ATOM     28  C   UNL     1      96.795  15.286  17.035  1.00  0.00     0.131 A 
ATOM     29  C   UNL     1      95.814  14.254  15.231  1.00  0.00     0.116 A 
ATOM     30  N   UNL     1      96.011  15.389  15.939  1.00  0.00    -0.251 NA
BRANCH  28  31
ATOM     31  C   UNL     1      96.997  16.513  17.784  1.00  0.00     0.269 C 
ATOM     32  O   UNL     1      97.887  17.318  17.454  1.00  0.00    -0.268 OA
ATOM     33  N   UNL     1      96.136  16.749  18.863  1.00  0.00    -0.354 N 
ATOM     34  C   UNL     1      96.194  17.933  19.689  1.00  0.00     0.143 C 
ATOM     35  H   UNL     1      95.408  16.069  19.064  1.00  0.00     0.163 HD
ENDBRANCH  28  31
ENDBRANCH  24  25
ENDBRANCH   2  24
TORSDOF 6
ENDMDL
MODEL 7
REMARK VINA RESULT:    -6.686      5.798     11.295
REMARK INTER + INTRA:          -9.713
REMARK INTER:                  -8.825
REMARK INTRA:                  -0.887
REMARK UNBOUND:                -0.681
REMARK SMILES CNC(=O)c1cc(Oc2ccc(NC(=O)Nc3ccc(Cl)c(C(F)(F)F)c3)cc2)ccn1
REMARK SMILES IDX 12 1 9 2 11 3 28 4 10 5 29 6 13 7 16 8 14 9 15 11 17 13
REMARK SMILES IDX 21 14 20 15 22 16 19 17 27 18 18 19 23 20 24 21 25 22 26 23
REMARK SMILES IDX 8 24 7 25 6 26 30 27 5 28 31 29 32 30 3 31 4 32 2 33 1 34
REMARK H PARENT 16 10 13 12 2 35
REMARK Flexibility Score: inf
ROOT
ATOM      1  C   UNL     1      96.569 -12.934  24.219  1.00  0.00     0.043 A 
ATOM      2  C   UNL     1      94.220 -14.394  24.077  1.00  0.00     0.127 A 
ATOM      3  C   UNL     1      95.793 -12.859  23.075  1.00  0.00     0.030 A 
ATOM      4  C   UNL     1      96.196 -13.723  25.294  1.00  0.00     0.030 A 
ATOM      5  C   UNL     1      94.609 -13.594  23.002  1.00  0.00     0.049 A 
ATOM      6  C   UNL     1      95.013 -14.459  25.223  1.00  0.00     0.049 A 
ENDROOT
BRANCH   1   7
ATOM      7  N   UNL     1      97.769 -12.188  24.291  1.00  0.00    -0.308 N 
ATOM      8  N   UNL     1      99.303 -10.495  24.636  1.00  0.00    -0.308 N 
ATOM      9  C   UNL     1      97.937 -10.860  24.717  1.00  0.00     0.323 C 
ATOM     10  H   UNL     1      99.936 -11.214  24.295  1.00  0.00     0.171 HD
ATOM     11  O   UNL     1      97.038 -10.121  25.104  1.00  0.00    -0.248 OA
ATOM     12  H   UNL     1      98.609 -12.681  23.996  1.00  0.00     0.171 HD
BRANCH   8  13
ATOM     13  C   UNL     1      99.899  -9.275  24.960  1.00  0.00     0.043 A 
ATOM     14  Cl  UNL     1     101.816  -5.335  26.046  1.00  0.00    -0.084 Cl
ATOM     15  C   UNL     1     101.090  -6.838  25.608  1.00  0.00     0.053 A 
ATOM     16  C   UNL     1     101.078  -7.278  24.284  1.00  0.00     0.076 A 
ATOM     17  C   UNL     1     100.507  -7.616  26.607  1.00  0.00     0.023 A 
ATOM     18  C   UNL     1     100.483  -8.497  23.960  1.00  0.00     0.040 A 
ATOM     19  C   UNL     1      99.911  -8.835  26.283  1.00  0.00     0.028 A 
BRANCH  16  20
ATOM     20  C   UNL     1     101.691  -6.473  23.184  1.00  0.00     0.417 C 
ATOM     21  F   UNL     1     102.983  -6.112  23.428  1.00  0.00    -0.166 F 
ATOM     22  F   UNL     1     101.720  -7.124  21.985  1.00  0.00    -0.166 F 
ATOM     23  F   UNL     1     101.019  -5.308  22.953  1.00  0.00    -0.166 F 
ENDBRANCH  16  20
ENDBRANCH   8  13
ENDBRANCH   1   7
BRANCH   2  24
ATOM     24  O   UNL     1      93.066 -15.112  24.006  1.00  0.00    -0.457 OA
BRANCH  24  25
ATOM     25  C   UNL     1      91.871 -14.422  24.117  1.00  0.00     0.131 A 
ATOM     26  C   UNL     1      91.243 -13.974  22.974  1.00  0.00     0.081 A 
ATOM     27  C   UNL     1      91.333 -14.201  25.367  1.00  0.00     0.067 A 
ATOM     28  C   UNL     1      90.049 -13.290  23.138  1.00  0.00     0.131 A 
ATOM     29  C   UNL     1      90.135 -13.507  25.425  1.00  0.00     0.116 A 
ATOM     30  N   UNL     1      89.477 -13.044  24.338  1.00  0.00    -0.251 NA
BRANCH  28  31
ATOM     31  C   UNL     1      89.329 -12.787  21.981  1.00  0.00     0.269 C 
ATOM     32  O   UNL     1      89.889 -12.032  21.166  1.00  0.00    -0.268 OA
ATOM     33  N   UNL     1      88.003 -13.209  21.823  1.00  0.00    -0.354 N 
ATOM     34  C   UNL     1      87.165 -12.816  20.714  1.00  0.00     0.143 C 
ATOM     35  H   UNL     1      87.610 -13.851  22.506  1.00  0.00     0.163 HD
ENDBRANCH  28  31
ENDBRANCH  24  25
ENDBRANCH   2  24
TORSDOF 6
ENDMDL
MODEL 8
REMARK VINA RESULT:    -6.685     16.286     19.342
REMARK INTER + INTRA:          -9.711
REMARK INTER:                  -8.977
REMARK INTRA:                  -0.734
REMARK UNBOUND:                -0.681
REMARK SMILES CNC(=O)c1cc(Oc2ccc(NC(=O)Nc3ccc(Cl)c(C(F)(F)F)c3)cc2)ccn1
REMARK SMILES IDX 12 1 9 2 11 3 28 4 10 5 29 6 13 7 16 8 14 9 15 11 17 13
REMARK SMILES IDX 21 14 20 15 22 16 19 17 27 18 18 19 23 20 24 21 25 22 26 23
REMARK SMILES IDX 8 24 7 25 6 26 30 27 5 28 31 29 32 30 3 31 4 32 2 33 1 34
REMARK H PARENT 16 10 13 12 2 35
REMARK Flexibility Score: inf
ROOT
ATOM      1  C   UNL     1      98.843   7.847  20.731  1.00  0.00     0.043 A 
ATOM      2  C   UNL     1      97.369   9.358  22.522  1.00  0.00     0.127 A 
ATOM      3  C   UNL     1      99.194   7.843  22.070  1.00  0.00     0.030 A 
ATOM      4  C   UNL     1      97.770   8.590  20.268  1.00  0.00     0.030 A 
ATOM      5  C   UNL     1      98.452   8.604  22.973  1.00  0.00     0.049 A 
ATOM      6  C   UNL     1      97.027   9.351  21.170  1.00  0.00     0.049 A 
ENDROOT
BRANCH   1   7
ATOM      7  N   UNL     1      99.597   7.074  19.815  1.00  0.00    -0.308 N 
ATOM      8  N   UNL     1     100.797   5.365  18.828  1.00  0.00    -0.308 N 
ATOM      9  C   UNL     1     100.096   5.773  19.989  1.00  0.00     0.323 C 
ATOM     10  H   UNL     1     100.838   6.044  18.071  1.00  0.00     0.171 HD
ATOM     11  O   UNL     1      99.950   5.086  20.994  1.00  0.00    -0.248 OA
ATOM     12  H   UNL     1      99.798   7.524  18.925  1.00  0.00     0.171 HD
BRANCH   8  13
ATOM     13  C   UNL     1     101.445   4.154  18.582  1.00  0.00     0.043 A 
ATOM     14  Cl  UNL     1     103.506   0.217  17.788  1.00  0.00    -0.084 Cl
ATOM     15  C   UNL     1     102.740   1.733  18.091  1.00  0.00     0.053 A 
ATOM     16  C   UNL     1     103.485   2.898  18.274  1.00  0.00     0.076 A 
ATOM     17  C   UNL     1     101.348   1.779  18.155  1.00  0.00     0.023 A 
ATOM     18  C   UNL     1     102.838   4.109  18.519  1.00  0.00     0.040 A 
ATOM     19  C   UNL     1     100.700   2.990  18.400  1.00  0.00     0.028 A 
BRANCH  16  20
ATOM     20  C   UNL     1     104.979   2.891  18.216  1.00  0.00     0.417 C 
ATOM     21  F   UNL     1     105.475   2.545  16.993  1.00  0.00    -0.166 F 
ATOM     22  F   UNL     1     105.540   4.101  18.502  1.00  0.00    -0.166 F 
ATOM     23  F   UNL     1     105.531   2.010  19.100  1.00  0.00    -0.166 F 
ENDBRANCH  16  20
ENDBRANCH   8  13
ENDBRANCH   1   7
BRANCH   2  24
ATOM     24  O   UNL     1      96.644  10.102  23.403  1.00  0.00    -0.457 OA
BRANCH  24  25
ATOM     25  C   UNL     1      95.805   9.430  24.275  1.00  0.00     0.131 A 
ATOM     26  C   UNL     1      94.627   8.893  23.799  1.00  0.00     0.081 A 
ATOM     27  C   UNL     1      96.166   9.310  25.600  1.00  0.00     0.067 A 
ATOM     28  C   UNL     1      93.823   8.229  24.711  1.00  0.00     0.131 A 
ATOM     29  C   UNL     1      95.293   8.627  26.432  1.00  0.00     0.116 A 
ATOM     30  N   UNL     1      94.126   8.081  26.019  1.00  0.00    -0.251 NA
BRANCH  28  31
ATOM     31  C   UNL     1      92.568   7.637  24.284  1.00  0.00     0.269 C 
ATOM     32  O   UNL     1      91.883   8.175  23.394  1.00  0.00    -0.268 OA
ATOM     33  N   UNL     1      92.187   6.438  24.899  1.00  0.00    -0.354 N 
ATOM     34  C   UNL     1      90.981   5.716  24.567  1.00  0.00     0.143 C 
ATOM     35  H   UNL     1      92.803   6.030  25.597  1.00  0.00     0.163 HD
ENDBRANCH  28  31
ENDBRANCH  24  25
ENDBRANCH   2  24
TORSDOF 6
ENDMDL
MODEL 9
REMARK VINA RESULT:    -6.525     14.980     18.166
REMARK INTER + INTRA:          -9.494
REMARK INTER:                  -9.047
REMARK INTRA:                  -0.447
REMARK UNBOUND:                -0.681
REMARK SMILES CNC(=O)c1cc(Oc2ccc(NC(=O)Nc3ccc(Cl)c(C(F)(F)F)c3)cc2)ccn1
REMARK SMILES IDX 12 1 9 2 11 3 28 4 10 5 29 6 13 7 16 8 14 9 15 11 17 13
REMARK SMILES IDX 21 14 20 15 22 16 19 17 27 18 18 19 23 20 24 21 25 22 26 23
REMARK SMILES IDX 8 24 7 25 6 26 30 27 5 28 31 29 32 30 3 31 4 32 2 33 1 34
REMARK H PARENT 16 10 13 12 2 35
REMARK Flexibility Score: inf
ROOT
ATOM      1  C   UNL     1      94.270  -0.684  13.584  1.00  0.00     0.043 A 
ATOM      2  C   UNL     1      93.677  -2.886  12.012  1.00  0.00     0.127 A 
ATOM      3  C   UNL     1      93.147  -0.656  12.774  1.00  0.00     0.030 A 
ATOM      4  C   UNL     1      95.103  -1.791  13.626  1.00  0.00     0.030 A 
ATOM      5  C   UNL     1      92.848  -1.764  11.982  1.00  0.00     0.049 A 
ATOM      6  C   UNL     1      94.804  -2.899  12.833  1.00  0.00     0.049 A 
ENDROOT
BRANCH   1   7
ATOM      7  N   UNL     1      94.573   0.440  14.388  1.00  0.00    -0.308 N 
ATOM      8  N   UNL     1      94.495   2.506  15.420  1.00  0.00    -0.308 N 
ATOM      9  C   UNL     1      93.847   1.637  14.508  1.00  0.00     0.323 C 
ATOM     10  H   UNL     1      95.354   2.154  15.836  1.00  0.00     0.171 HD
ATOM     11  O   UNL     1      92.806   1.897  13.915  1.00  0.00    -0.248 OA
ATOM     12  H   UNL     1      95.422   0.365  14.943  1.00  0.00     0.171 HD
BRANCH   8  13
ATOM     13  C   UNL     1      94.113   3.785  15.824  1.00  0.00     0.043 A 
ATOM     14  Cl  UNL     1      92.853   7.910  17.160  1.00  0.00    -0.084 Cl
ATOM     15  C   UNL     1      93.349   6.343  16.633  1.00  0.00     0.053 A 
ATOM     16  C   UNL     1      94.228   6.184  15.562  1.00  0.00     0.076 A 
ATOM     17  C   UNL     1      92.852   5.224  17.300  1.00  0.00     0.023 A 
ATOM     18  C   UNL     1      94.611   4.905  15.158  1.00  0.00     0.040 A 
ATOM     19  C   UNL     1      93.234   3.944  16.896  1.00  0.00     0.028 A 
BRANCH  16  20
ATOM     20  C   UNL     1      94.782   7.358  14.820  1.00  0.00     0.417 C 
ATOM     21  F   UNL     1      95.602   7.011  13.786  1.00  0.00    -0.166 F 
ATOM     22  F   UNL     1      93.822   8.153  14.266  1.00  0.00    -0.166 F 
ATOM     23  F   UNL     1      95.524   8.177  15.620  1.00  0.00    -0.166 F 
ENDBRANCH  16  20
ENDBRANCH   8  13
ENDBRANCH   1   7
BRANCH   2  24
ATOM     24  O   UNL     1      93.386  -3.967  11.238  1.00  0.00    -0.457 OA
BRANCH  24  25
ATOM     25  C   UNL     1      93.139  -5.169  11.879  1.00  0.00     0.131 A 
ATOM     26  C   UNL     1      93.889  -6.277  11.546  1.00  0.00     0.081 A 
ATOM     27  C   UNL     1      92.150  -5.231  12.837  1.00  0.00     0.067 A 
ATOM     28  C   UNL     1      93.603  -7.456  12.218  1.00  0.00     0.131 A 
ATOM     29  C   UNL     1      91.942  -6.456  13.451  1.00  0.00     0.116 A 
ATOM     30  N   UNL     1      92.647  -7.574  13.164  1.00  0.00    -0.251 NA
BRANCH  28  31
ATOM     31  C   UNL     1      94.351  -8.665  11.921  1.00  0.00     0.269 C 
ATOM     32  O   UNL     1      95.498  -8.829  12.376  1.00  0.00    -0.268 OA
ATOM     33  N   UNL     1      93.714  -9.630  11.131  1.00  0.00    -0.354 N 
ATOM     34  C   UNL     1      94.316 -10.893  10.770  1.00  0.00     0.143 C 
ATOM     35  H   UNL     1      92.765  -9.453  10.814  1.00  0.00     0.163 HD
ENDBRANCH  28  31
ENDBRANCH  24  25
ENDBRANCH   2  24
TORSDOF 6
ENDMDL
MODEL 10
REMARK VINA RESULT:    -6.521     13.706     16.539
REMARK INTER + INTRA:          -9.490
REMARK INTER:                  -8.455
REMARK INTRA:                  -1.035
REMARK UNBOUND:                -0.681
REMARK SMILES CNC(=O)c1cc(Oc2ccc(NC(=O)Nc3ccc(Cl)c(C(F)(F)F)c3)cc2)ccn1
REMARK SMILES IDX 12 1 9 2 11 3 28 4 10 5 29 6 13 7 16 8 14 9 15 11 17 13
REMARK SMILES IDX 21 14 20 15 22 16 19 17 27 18 18 19 23 20 24 21 25 22 26 23
REMARK SMILES IDX 8 24 7 25 6 26 30 27 5 28 31 29 32 30 3 31 4 32 2 33 1 34
REMARK H PARENT 16 10 13 12 2 35
REMARK Flexibility Score: inf
ROOT
ATOM      1  C   UNL     1      93.713  -5.073  12.423  1.00  0.00     0.043 A 
ATOM      2  C   UNL     1      92.912  -7.389  11.133  1.00  0.00     0.127 A 
ATOM      3  C   UNL     1      94.182  -5.334  11.146  1.00  0.00     0.030 A 
ATOM      4  C   UNL     1      92.851  -5.945  13.068  1.00  0.00     0.030 A 
ATOM      5  C   UNL     1      93.779  -6.501  10.496  1.00  0.00     0.049 A 
ATOM      6  C   UNL     1      92.448  -7.112  12.419  1.00  0.00     0.049 A 
ENDROOT
BRANCH   1   7
ATOM      7  N   UNL     1      94.122  -3.889  13.082  1.00  0.00    -0.308 N 
ATOM      8  N   UNL     1      94.331  -1.685  13.741  1.00  0.00    -0.308 N 
ATOM      9  C   UNL     1      93.662  -2.579  12.870  1.00  0.00     0.323 C 
ATOM     10  H   UNL     1      95.018  -2.102  14.364  1.00  0.00     0.171 HD
ATOM     11  O   UNL     1      92.807  -2.251  12.054  1.00  0.00    -0.248 OA
ATOM     12  H   UNL     1      94.837  -4.011  13.794  1.00  0.00     0.171 HD
BRANCH   8  13
ATOM     13  C   UNL     1      94.176  -0.303  13.857  1.00  0.00     0.043 A 
ATOM     14  Cl  UNL     1      93.693   4.173  14.197  1.00  0.00    -0.084 Cl
ATOM     15  C   UNL     1      93.866   2.459  14.087  1.00  0.00     0.053 A 
ATOM     16  C   UNL     1      93.389   1.617  15.093  1.00  0.00     0.076 A 
ATOM     17  C   UNL     1      94.497   1.920  12.967  1.00  0.00     0.023 A 
ATOM     18  C   UNL     1      93.544   0.236  14.977  1.00  0.00     0.040 A 
ATOM     19  C   UNL     1      94.652   0.538  12.851  1.00  0.00     0.028 A 
BRANCH  16  20
ATOM     20  C   UNL     1      92.709   2.156  16.310  1.00  0.00     0.417 C 
ATOM     21  F   UNL     1      91.645   2.961  16.028  1.00  0.00    -0.166 F 
ATOM     22  F   UNL     1      92.216   1.185  17.132  1.00  0.00    -0.166 F 
ATOM     23  F   UNL     1      93.544   2.906  17.086  1.00  0.00    -0.166 F 
ENDBRANCH  16  20
ENDBRANCH   8  13
ENDBRANCH   1   7
BRANCH   2  24
ATOM     24  O   UNL     1      92.520  -8.528  10.499  1.00  0.00    -0.457 OA
BRANCH  24  25
ATOM     25  C   UNL     1      93.500  -9.440  10.147  1.00  0.00     0.131 A 
ATOM     26  C   UNL     1      94.354  -9.919  11.118  1.00  0.00     0.081 A 
ATOM     27  C   UNL     1      93.600  -9.851   8.835  1.00  0.00     0.067 A 
ATOM     28  C   UNL     1      95.317 -10.831  10.715  1.00  0.00     0.131 A 
ATOM     29  C   UNL     1      94.596 -10.765   8.534  1.00  0.00     0.116 A 
ATOM     30  N   UNL     1      95.461 -11.268   9.445  1.00  0.00    -0.251 NA
BRANCH  28  31
ATOM     31  C   UNL     1      96.253 -11.381  11.681  1.00  0.00     0.269 C 
ATOM     32  O   UNL     1      97.096 -12.228  11.335  1.00  0.00    -0.268 OA
ATOM     33  N   UNL     1      96.171 -10.897  12.992  1.00  0.00    -0.354 N 
ATOM     34  C   UNL     1      97.046 -11.327  14.060  1.00  0.00     0.143 C 
ATOM     35  H   UNL     1      95.482 -10.182  13.208  1.00  0.00     0.163 HD
ENDBRANCH  28  31
ENDBRANCH  24  25
ENDBRANCH   2  24
TORSDOF 6
ENDMDL
MODEL 11
REMARK VINA RESULT:    -6.507     20.704     23.847
REMARK INTER + INTRA:          -9.470
REMARK INTER:                  -8.829
REMARK INTRA:                  -0.642
REMARK UNBOUND:                -0.681
REMARK SMILES CNC(=O)c1cc(Oc2ccc(NC(=O)Nc3ccc(Cl)c(C(F)(F)F)c3)cc2)ccn1
REMARK SMILES IDX 12 1 9 2 11 3 28 4 10 5 29 6 13 7 16 8 14 9 15 11 17 13
REMARK SMILES IDX 21 14 20 15 22 16 19 17 27 18 18 19 23 20 24 21 25 22 26 23
REMARK SMILES IDX 8 24 7 25 6 26 30 27 5 28 31 29 32 30 3 31 4 32 2 33 1 34
REMARK H PARENT 16 10 13 12 2 35
REMARK Flexibility Score: inf
ROOT
ATOM      1  C   UNL     1      95.467  13.088  21.019  1.00  0.00     0.043 A 
ATOM      2  C   UNL     1      96.695  14.519  18.991  1.00  0.00     0.127 A 
ATOM      3  C   UNL     1      94.896  14.272  20.583  1.00  0.00     0.030 A 
ATOM      4  C   UNL     1      96.639  12.604  20.462  1.00  0.00     0.030 A 
ATOM      5  C   UNL     1      95.514  14.993  19.561  1.00  0.00     0.049 A 
ATOM      6  C   UNL     1      97.258  13.324  19.441  1.00  0.00     0.049 A 
ENDROOT
BRANCH   1   7
ATOM      7  N   UNL     1      94.840  12.358  22.056  1.00  0.00    -0.308 N 
ATOM      8  N   UNL     1      93.762  10.704  23.256  1.00  0.00    -0.308 N 
ATOM      9  C   UNL     1      94.295  11.065  21.995  1.00  0.00     0.323 C 
ATOM     10  H   UNL     1      93.846  11.403  23.991  1.00  0.00     0.171 HD
ATOM     11  O   UNL     1      94.280  10.348  20.999  1.00  0.00    -0.248 OA
ATOM     12  H   UNL     1      94.780  12.835  22.952  1.00  0.00     0.171 HD
BRANCH   8  13
ATOM     13  C   UNL     1      93.133   9.515  23.628  1.00  0.00     0.043 A 
ATOM     14  Cl  UNL     1      91.128   5.648  24.816  1.00  0.00    -0.084 Cl
ATOM     15  C   UNL     1      91.876   7.139  24.371  1.00  0.00     0.053 A 
ATOM     16  C   UNL     1      91.229   8.359  24.562  1.00  0.00     0.076 A 
ATOM     17  C   UNL     1      93.151   7.106  23.808  1.00  0.00     0.023 A 
ATOM     18  C   UNL     1      91.857   9.548  24.191  1.00  0.00     0.040 A 
ATOM     19  C   UNL     1      93.781   8.295  23.437  1.00  0.00     0.028 A 
BRANCH  16  20
ATOM     20  C   UNL     1      89.860   8.437  25.160  1.00  0.00     0.417 C 
ATOM     21  F   UNL     1      88.909   7.788  24.429  1.00  0.00    -0.166 F 
ATOM     22  F   UNL     1      89.783   7.897  26.411  1.00  0.00    -0.166 F 
ATOM     23  F   UNL     1      89.418   9.722  25.284  1.00  0.00    -0.166 F 
ENDBRANCH  16  20
ENDBRANCH   8  13
ENDBRANCH   1   7
BRANCH   2  24
ATOM     24  O   UNL     1      97.299  15.222  17.994  1.00  0.00    -0.457 OA
BRANCH  24  25
ATOM     25  C   UNL     1      96.670  15.261  16.761  1.00  0.00     0.131 A 
ATOM     26  C   UNL     1      96.752  16.406  15.998  1.00  0.00     0.081 A 
ATOM     27  C   UNL     1      95.977  14.153  16.323  1.00  0.00     0.067 A 
ATOM     28  C   UNL     1      96.107  16.394  14.771  1.00  0.00     0.131 A 
ATOM     29  C   UNL     1      95.366  14.241  15.082  1.00  0.00     0.116 A 
ATOM     30  N   UNL     1      95.414  15.338  14.292  1.00  0.00    -0.251 NA
BRANCH  28  31
ATOM     31  C   UNL     1      96.149  17.564  13.911  1.00  0.00     0.269 C 
ATOM     32  O   UNL     1      95.908  17.464  12.694  1.00  0.00    -0.268 OA
ATOM     33  N   UNL     1      96.446  18.790  14.518  1.00  0.00    -0.354 N 
ATOM     34  C   UNL     1      96.502  20.044  13.803  1.00  0.00     0.143 C 
ATOM     35  H   UNL     1      96.603  18.813  15.523  1.00  0.00     0.163 HD
ENDBRANCH  28  31
ENDBRANCH  24  25
ENDBRANCH   2  24
TORSDOF 6
ENDMDL
MODEL 12
REMARK VINA RESULT:    -6.453     16.988     19.110
REMARK INTER + INTRA:          -9.398
REMARK INTER:                  -8.378
REMARK INTRA:                  -1.020
REMARK UNBOUND:                -0.681
REMARK SMILES CNC(=O)c1cc(Oc2ccc(NC(=O)Nc3ccc(Cl)c(C(F)(F)F)c3)cc2)ccn1
REMARK SMILES IDX 12 1 9 2 11 3 28 4 10 5 29 6 13 7 16 8 14 9 15 11 17 13
REMARK SMILES IDX 21 14 20 15 22 16 19 17 27 18 18 19 23 20 24 21 25 22 26 23
REMARK SMILES IDX 8 24 7 25 6 26 30 27 5 28 31 29 32 30 3 31 4 32 2 33 1 34
REMARK H PARENT 16 10 13 12 2 35
REMARK Flexibility Score: inf
ROOT
ATOM      1  C   UNL     1      97.148   9.653  23.295  1.00  0.00     0.043 A 
ATOM      2  C   UNL     1      99.862  10.042  23.683  1.00  0.00     0.127 A 
ATOM      3  C   UNL     1      97.573  10.498  24.306  1.00  0.00     0.030 A 
ATOM      4  C   UNL     1      98.050   8.999  22.473  1.00  0.00     0.030 A 
ATOM      5  C   UNL     1      98.940  10.695  24.502  1.00  0.00     0.049 A 
ATOM      6  C   UNL     1      99.418   9.195  22.668  1.00  0.00     0.049 A 
ENDROOT
BRANCH   1   7
ATOM      7  N   UNL     1      95.761   9.455  23.096  1.00  0.00    -0.308 N 
ATOM      8  N   UNL     1      93.581   8.716  23.300  1.00  0.00    -0.308 N 
ATOM      9  C   UNL     1      94.894   8.623  23.824  1.00  0.00     0.323 C 
ATOM     10  H   UNL     1      93.462   9.342  22.508  1.00  0.00     0.171 HD
ATOM     11  O   UNL     1      95.219   7.918  24.774  1.00  0.00    -0.248 OA
ATOM     12  H   UNL     1      95.349   9.983  22.331  1.00  0.00     0.171 HD
BRANCH   8  13
ATOM     13  C   UNL     1      92.426   8.059  23.725  1.00  0.00     0.043 A 
ATOM     14  Cl  UNL     1      88.688   5.912  25.066  1.00  0.00    -0.084 Cl
ATOM     15  C   UNL     1      90.117   6.745  24.574  1.00  0.00     0.053 A 
ATOM     16  C   UNL     1      90.681   7.745  25.366  1.00  0.00     0.076 A 
ATOM     17  C   UNL     1      90.707   6.402  23.358  1.00  0.00     0.023 A 
ATOM     18  C   UNL     1      91.836   8.402  24.942  1.00  0.00     0.040 A 
ATOM     19  C   UNL     1      91.862   7.059  22.933  1.00  0.00     0.028 A 
BRANCH  16  20
ATOM     20  C   UNL     1      90.078   8.143  26.675  1.00  0.00     0.417 C 
ATOM     21  F   UNL     1      88.899   8.817  26.549  1.00  0.00    -0.166 F 
ATOM     22  F   UNL     1      89.803   7.085  27.491  1.00  0.00    -0.166 F 
ATOM     23  F   UNL     1      90.896   8.963  27.398  1.00  0.00    -0.166 F 
ENDBRANCH  16  20
ENDBRANCH   8  13
ENDBRANCH   1   7
BRANCH   2  24
ATOM     24  O   UNL     1     101.196  10.233  23.875  1.00  0.00    -0.457 OA
BRANCH  24  25
ATOM     25  C   UNL     1     101.959   9.135  24.231  1.00  0.00     0.131 A 
ATOM     26  C   UNL     1     101.612   8.407  25.350  1.00  0.00     0.081 A 
ATOM     27  C   UNL     1     103.048   8.791  23.459  1.00  0.00     0.067 A 
ATOM     28  C   UNL     1     102.406   7.315  25.663  1.00  0.00     0.131 A 
ATOM     29  C   UNL     1     103.778   7.682  23.856  1.00  0.00     0.116 A 
ATOM     30  N   UNL     1     103.484   6.933  24.943  1.00  0.00    -0.251 NA
BRANCH  28  31
ATOM     31  C   UNL     1     102.104   6.500  26.826  1.00  0.00     0.269 C 
ATOM     32  O   UNL     1     101.430   6.962  27.766  1.00  0.00    -0.268 OA
ATOM     33  N   UNL     1     102.581   5.184  26.824  1.00  0.00    -0.354 N 
ATOM     34  C   UNL     1     102.344   4.244  27.895  1.00  0.00     0.143 C 
ATOM     35  H   UNL     1     103.099   4.854  26.013  1.00  0.00     0.163 HD
ENDBRANCH  28  31
ENDBRANCH  24  25
ENDBRANCH   2  24
TORSDOF 6
ENDMDL
MODEL 13
REMARK VINA RESULT:    -6.386      2.103      2.516
REMARK INTER + INTRA:          -9.307
REMARK INTER:                  -8.830
REMARK INTRA:                  -0.477
REMARK UNBOUND:                -0.681
REMARK SMILES CNC(=O)c1cc(Oc2ccc(NC(=O)Nc3ccc(Cl)c(C(F)(F)F)c3)cc2)ccn1
REMARK SMILES IDX 12 1 9 2 11 3 28 4 10 5 29 6 13 7 16 8 14 9 15 11 17 13
REMARK SMILES IDX 21 14 20 15 22 16 19 17 27 18 18 19 23 20 24 21 25 22 26 23
REMARK SMILES IDX 8 24 7 25 6 26 30 27 5 28 31 29 32 30 3 31 4 32 2 33 1 34
REMARK H PARENT 16 10 13 12 2 35
REMARK Flexibility Score: inf
ROOT
ATOM      1  C   UNL     1      96.811 -11.337  24.296  1.00  0.00     0.043 A 
ATOM      2  C   UNL     1      99.461 -10.550  24.470  1.00  0.00     0.127 A 
ATOM      3  C   UNL     1      97.200 -10.137  23.724  1.00  0.00     0.030 A 
ATOM      4  C   UNL     1      97.718 -12.152  24.952  1.00  0.00     0.030 A 
ATOM      5  C   UNL     1      98.535  -9.740  23.812  1.00  0.00     0.049 A 
ATOM      6  C   UNL     1      99.053 -11.756  25.040  1.00  0.00     0.049 A 
ENDROOT
BRANCH   1   7
ATOM      7  N   UNL     1      95.457 -11.739  24.207  1.00  0.00    -0.308 N 
ATOM      8  N   UNL     1      93.506 -12.817  23.601  1.00  0.00    -0.308 N 
ATOM      9  C   UNL     1      94.902 -12.727  23.378  1.00  0.00     0.323 C 
ATOM     10  H   UNL     1      93.125 -12.180  24.296  1.00  0.00     0.171 HD
ATOM     11  O   UNL     1      95.527 -13.415  22.578  1.00  0.00    -0.248 OA
ATOM     12  H   UNL     1      94.814 -11.247  24.823  1.00  0.00     0.171 HD
BRANCH   8  13
ATOM     13  C   UNL     1      92.580 -13.662  22.990  1.00  0.00     0.043 A 
ATOM     14  Cl  UNL     1      89.612 -16.421  20.999  1.00  0.00    -0.084 Cl
ATOM     15  C   UNL     1      90.728 -15.353  21.768  1.00  0.00     0.053 A 
ATOM     16  C   UNL     1      90.293 -14.204  22.429  1.00  0.00     0.076 A 
ATOM     17  C   UNL     1      92.088 -15.656  21.717  1.00  0.00     0.023 A 
ATOM     18  C   UNL     1      91.218 -13.359  23.041  1.00  0.00     0.040 A 
ATOM     19  C   UNL     1      93.014 -14.810  22.328  1.00  0.00     0.028 A 
BRANCH  16  20
ATOM     20  C   UNL     1      88.844 -13.843  22.505  1.00  0.00     0.417 C 
ATOM     21  F   UNL     1      88.076 -14.797  23.107  1.00  0.00    -0.166 F 
ATOM     22  F   UNL     1      88.606 -12.696  23.204  1.00  0.00    -0.166 F 
ATOM     23  F   UNL     1      88.291 -13.647  21.274  1.00  0.00    -0.166 F 
ENDBRANCH  16  20
ENDBRANCH   8  13
ENDBRANCH   1   7
BRANCH   2  24
ATOM     24  O   UNL     1     100.763 -10.162  24.556  1.00  0.00    -0.457 OA
BRANCH  24  25
ATOM     25  C   UNL     1     101.080  -9.168  25.465  1.00  0.00     0.131 A 
ATOM     26  C   UNL     1     101.666  -8.004  25.014  1.00  0.00     0.081 A 
ATOM     27  C   UNL     1     100.800  -9.361  26.801  1.00  0.00     0.067 A 
ATOM     28  C   UNL     1     101.962  -7.039  25.963  1.00  0.00     0.131 A 
ATOM     29  C   UNL     1     101.134  -8.335  27.670  1.00  0.00     0.116 A 
ATOM     30  N   UNL     1     101.711  -7.175  27.284  1.00  0.00    -0.251 NA
BRANCH  28  31
ATOM     31  C   UNL     1     102.581  -5.787  25.564  1.00  0.00     0.269 C 
ATOM     32  O   UNL     1     101.895  -4.864  25.087  1.00  0.00    -0.268 OA
ATOM     33  N   UNL     1     103.962  -5.667  25.764  1.00  0.00    -0.354 N 
ATOM     34  C   UNL     1     104.718  -4.479  25.441  1.00  0.00     0.143 C 
ATOM     35  H   UNL     1     104.464  -6.444  26.186  1.00  0.00     0.163 HD
ENDBRANCH  28  31
ENDBRANCH  24  25
ENDBRANCH   2  24
TORSDOF 6
ENDMDL
MODEL 14
REMARK VINA RESULT:    -6.376     18.759     20.816
REMARK INTER + INTRA:          -9.294
REMARK INTER:                  -8.550
REMARK INTRA:                  -0.744
REMARK UNBOUND:                -0.681
REMARK SMILES CNC(=O)c1cc(Oc2ccc(NC(=O)Nc3ccc(Cl)c(C(F)(F)F)c3)cc2)ccn1
REMARK SMILES IDX 12 1 9 2 11 3 28 4 10 5 29 6 13 7 16 8 14 9 15 11 17 13
REMARK SMILES IDX 21 14 20 15 22 16 19 17 27 18 18 19 23 20 24 21 25 22 26 23
REMARK SMILES IDX 8 24 7 25 6 26 30 27 5 28 31 29 32 30 3 31 4 32 2 33 1 34
REMARK H PARENT 16 10 13 12 2 35
REMARK Flexibility Score: inf
ROOT
ATOM      1  C   UNL     1      95.949   9.661  20.778  1.00  0.00     0.043 A 
ATOM      2  C   UNL     1      97.072  10.606  18.429  1.00  0.00     0.127 A 
ATOM      3  C   UNL     1      95.440  10.811  20.198  1.00  0.00     0.030 A 
ATOM      4  C   UNL     1      97.006   8.972  20.207  1.00  0.00     0.030 A 
ATOM      5  C   UNL     1      96.005  11.288  19.015  1.00  0.00     0.049 A 
ATOM      6  C   UNL     1      97.572   9.448  19.025  1.00  0.00     0.049 A 
ENDROOT
BRANCH   1   7
ATOM      7  N   UNL     1      95.375   9.179  21.978  1.00  0.00    -0.308 N 
ATOM      8  N   UNL     1      93.901   8.315  23.533  1.00  0.00    -0.308 N 
ATOM      9  C   UNL     1      94.069   8.703  22.181  1.00  0.00     0.323 C 
ATOM     10  H   UNL     1      94.713   8.432  24.134  1.00  0.00     0.171 HD
ATOM     11  O   UNL     1      93.198   8.633  21.321  1.00  0.00    -0.248 OA
ATOM     12  H   UNL     1      95.990   9.179  22.788  1.00  0.00     0.171 HD
BRANCH   8  13
ATOM     13  C   UNL     1      92.765   7.793  24.154  1.00  0.00     0.043 A 
ATOM     14  Cl  UNL     1      89.096   6.071  26.142  1.00  0.00    -0.084 Cl
ATOM     15  C   UNL     1      90.496   6.749  25.395  1.00  0.00     0.053 A 
ATOM     16  C   UNL     1      90.906   8.053  25.674  1.00  0.00     0.076 A 
ATOM     17  C   UNL     1      91.221   5.968  24.496  1.00  0.00     0.023 A 
ATOM     18  C   UNL     1      92.041   8.575  25.054  1.00  0.00     0.040 A 
ATOM     19  C   UNL     1      92.356   6.489  23.875  1.00  0.00     0.028 A 
BRANCH  16  20
ATOM     20  C   UNL     1      90.156   8.924  26.630  1.00  0.00     0.417 C 
ATOM     21  F   UNL     1      90.692  10.171  26.765  1.00  0.00    -0.166 F 
ATOM     22  F   UNL     1      88.855   9.129  26.273  1.00  0.00    -0.166 F 
ATOM     23  F   UNL     1      90.115   8.401  27.890  1.00  0.00    -0.166 F 
ENDBRANCH  16  20
ENDBRANCH   8  13
ENDBRANCH   1   7
BRANCH   2  24
ATOM     24  O   UNL     1      97.624  11.071  17.275  1.00  0.00    -0.457 OA
BRANCH  24  25
ATOM     25  C   UNL     1      97.265  10.446  16.092  1.00  0.00     0.131 A 
ATOM     26  C   UNL     1      96.097   9.715  16.043  1.00  0.00     0.081 A 
ATOM     27  C   UNL     1      98.083  10.570  14.990  1.00  0.00     0.067 A 
ATOM     28  C   UNL     1      95.783   9.111  14.836  1.00  0.00     0.131 A 
ATOM     29  C   UNL     1      97.680   9.928  13.830  1.00  0.00     0.116 A 
ATOM     30  N   UNL     1      96.546   9.198  13.725  1.00  0.00    -0.251 NA
BRANCH  28  31
ATOM     31  C   UNL     1      94.568   8.324  14.707  1.00  0.00     0.269 C 
ATOM     32  O   UNL     1      94.077   7.750  15.696  1.00  0.00    -0.268 OA
ATOM     33  N   UNL     1      93.979   8.268  13.438  1.00  0.00    -0.354 N 
ATOM     34  C   UNL     1      92.758   7.548  13.154  1.00  0.00     0.143 C 
ATOM     35  H   UNL     1      94.410   8.783  12.676  1.00  0.00     0.163 HD
ENDBRANCH  28  31
ENDBRANCH  24  25
ENDBRANCH   2  24
TORSDOF 6
ENDMDL
MODEL 15
REMARK VINA RESULT:    -6.340     19.171     21.552
REMARK INTER + INTRA:          -9.244
REMARK INTER:                  -8.343
REMARK INTRA:                  -0.902
REMARK UNBOUND:                -0.681
REMARK SMILES CNC(=O)c1cc(Oc2ccc(NC(=O)Nc3ccc(Cl)c(C(F)(F)F)c3)cc2)ccn1
REMARK SMILES IDX 12 1 9 2 11 3 28 4 10 5 29 6 13 7 16 8 14 9 15 11 17 13
REMARK SMILES IDX 21 14 20 15 22 16 19 17 27 18 18 19 23 20 24 21 25 22 26 23
REMARK SMILES IDX 8 24 7 25 6 26 30 27 5 28 31 29 32 30 3 31 4 32 2 33 1 34
REMARK H PARENT 16 10 13 12 2 35
REMARK Flexibility Score: inf
ROOT
ATOM      1  C   UNL     1      95.508  10.128  19.888  1.00  0.00     0.043 A 
ATOM      2  C   UNL     1      96.520  11.858  17.977  1.00  0.00     0.127 A 
ATOM      3  C   UNL     1      96.404  11.111  20.271  1.00  0.00     0.030 A 
ATOM      4  C   UNL     1      95.105   9.992  18.570  1.00  0.00     0.030 A 
ATOM      5  C   UNL     1      96.914  11.983  19.309  1.00  0.00     0.049 A 
ATOM      6  C   UNL     1      95.615  10.863  17.607  1.00  0.00     0.049 A 
ENDROOT
BRANCH   1   7
ATOM      7  N   UNL     1      94.991   9.244  20.865  1.00  0.00    -0.308 N 
ATOM      8  N   UNL     1      93.757   8.337  22.594  1.00  0.00    -0.308 N 
ATOM      9  C   UNL     1      93.971   9.489  21.799  1.00  0.00     0.323 C 
ATOM     10  H   UNL     1      94.347   7.536  22.384  1.00  0.00     0.171 HD
ATOM     11  O   UNL     1      93.354  10.542  21.915  1.00  0.00    -0.248 OA
ATOM     12  H   UNL     1      95.415   8.320  20.886  1.00  0.00     0.171 HD
BRANCH   8  13
ATOM     13  C   UNL     1      92.844   8.154  23.633  1.00  0.00     0.043 A 
ATOM     14  Cl  UNL     1      89.912   7.585  27.019  1.00  0.00    -0.084 Cl
ATOM     15  C   UNL     1      91.019   7.789  25.710  1.00  0.00     0.053 A 
ATOM     16  C   UNL     1      90.818   7.153  24.486  1.00  0.00     0.076 A 
ATOM     17  C   UNL     1      92.132   8.607  25.897  1.00  0.00     0.023 A 
ATOM     18  C   UNL     1      91.730   7.336  23.447  1.00  0.00     0.040 A 
ATOM     19  C   UNL     1      93.045   8.790  24.858  1.00  0.00     0.028 A 
BRANCH  16  20
ATOM     20  C   UNL     1      89.638   6.267  24.246  1.00  0.00     0.417 C 
ATOM     21  F   UNL     1      89.750   5.502  23.122  1.00  0.00    -0.166 F 
ATOM     22  F   UNL     1      89.407   5.383  25.260  1.00  0.00    -0.166 F 
ATOM     23  F   UNL     1      88.478   6.970  24.100  1.00  0.00    -0.166 F 
ENDBRANCH  16  20
ENDBRANCH   8  13
ENDBRANCH   1   7
BRANCH   2  24
ATOM     24  O   UNL     1      97.018  12.709  17.038  1.00  0.00    -0.457 OA
BRANCH  24  25
ATOM     25  C   UNL     1      97.812  12.171  16.040  1.00  0.00     0.131 A 
ATOM     26  C   UNL     1      97.435  12.323  14.722  1.00  0.00     0.081 A 
ATOM     27  C   UNL     1      98.965  11.498  16.385  1.00  0.00     0.067 A 
ATOM     28  C   UNL     1      98.265  11.768  13.761  1.00  0.00     0.131 A 
ATOM     29  C   UNL     1      99.727  10.980  15.350  1.00  0.00     0.116 A 
ATOM     30  N   UNL     1      99.404  11.098  14.041  1.00  0.00    -0.251 NA
BRANCH  28  31
ATOM     31  C   UNL     1      97.933  11.887  12.352  1.00  0.00     0.269 C 
ATOM     32  O   UNL     1      97.555  10.893  11.704  1.00  0.00    -0.268 OA
ATOM     33  N   UNL     1      98.037  13.160  11.779  1.00  0.00    -0.354 N 
ATOM     34  C   UNL     1      97.720  13.444  10.398  1.00  0.00     0.143 C 
ATOM     35  H   UNL     1      98.321  13.939  12.367  1.00  0.00     0.163 HD
ENDBRANCH  28  31
ENDBRANCH  24  25
ENDBRANCH   2  24
TORSDOF 6
ENDMDL
MODEL 16
REMARK VINA RESULT:    -6.336     15.306     17.754
REMARK INTER + INTRA:          -9.240
REMARK INTER:                  -8.559
REMARK INTRA:                  -0.681
REMARK UNBOUND:                -0.681
REMARK SMILES CNC(=O)c1cc(Oc2ccc(NC(=O)Nc3ccc(Cl)c(C(F)(F)F)c3)cc2)ccn1
REMARK SMILES IDX 12 1 9 2 11 3 28 4 10 5 29 6 13 7 16 8 14 9 15 11 17 13
REMARK SMILES IDX 21 14 20 15 22 16 19 17 27 18 18 19 23 20 24 21 25 22 26 23
REMARK SMILES IDX 8 24 7 25 6 26 30 27 5 28 31 29 32 30 3 31 4 32 2 33 1 34
REMARK H PARENT 16 10 13 12 2 35
REMARK Flexibility Score: inf
ROOT
ATOM      1  C   UNL     1      93.024   2.513  16.177  1.00  0.00     0.043 A 
ATOM      2  C   UNL     1      92.637   5.098  17.092  1.00  0.00     0.127 A 
ATOM      3  C   UNL     1      91.737   2.955  16.433  1.00  0.00     0.030 A 
ATOM      4  C   UNL     1      94.122   3.335  16.367  1.00  0.00     0.030 A 
ATOM      5  C   UNL     1      91.542   4.257  16.894  1.00  0.00     0.049 A 
ATOM      6  C   UNL     1      93.927   4.637  16.828  1.00  0.00     0.049 A 
ENDROOT
BRANCH   1   7
ATOM      7  N   UNL     1      93.221   1.192  15.709  1.00  0.00    -0.308 N 
ATOM      8  N   UNL     1      93.678  -0.635  14.370  1.00  0.00    -0.308 N 
ATOM      9  C   UNL     1      93.586   0.778  14.417  1.00  0.00     0.323 C 
ATOM     10  H   UNL     1      93.475  -1.123  15.239  1.00  0.00     0.171 HD
ATOM     11  O   UNL     1      93.796   1.524  13.466  1.00  0.00    -0.248 OA
ATOM     12  H   UNL     1      93.080   0.458  16.399  1.00  0.00     0.171 HD
BRANCH   8  13
ATOM     13  C   UNL     1      94.009  -1.449  13.287  1.00  0.00     0.043 A 
ATOM     14  Cl  UNL     1      95.043  -4.083   9.768  1.00  0.00    -0.084 Cl
ATOM     15  C   UNL     1      94.671  -3.078  11.121  1.00  0.00     0.053 A 
ATOM     16  C   UNL     1      95.615  -2.823  12.116  1.00  0.00     0.076 A 
ATOM     17  C   UNL     1      93.396  -2.520  11.210  1.00  0.00     0.023 A 
ATOM     18  C   UNL     1      95.285  -2.008  13.198  1.00  0.00     0.040 A 
ATOM     19  C   UNL     1      93.065  -1.705  12.293  1.00  0.00     0.028 A 
BRANCH  16  20
ATOM     20  C   UNL     1      96.991  -3.404  12.058  1.00  0.00     0.417 C 
ATOM     21  F   UNL     1      97.678  -3.293  13.232  1.00  0.00    -0.166 F 
ATOM     22  F   UNL     1      97.008  -4.734  11.756  1.00  0.00    -0.166 F 
ATOM     23  F   UNL     1      97.773  -2.802  11.116  1.00  0.00    -0.166 F 
ENDBRANCH  16  20
ENDBRANCH   8  13
ENDBRANCH   1   7
BRANCH   2  24
ATOM     24  O   UNL     1      92.447   6.368  17.543  1.00  0.00    -0.457 OA
BRANCH  24  25
ATOM     25  C   UNL     1      93.074   7.395  16.858  1.00  0.00     0.131 A 
ATOM     26  C   UNL     1      93.678   8.410  17.569  1.00  0.00     0.081 A 
ATOM     27  C   UNL     1      93.082   7.379  15.479  1.00  0.00     0.067 A 
ATOM     28  C   UNL     1      94.293   9.413  16.837  1.00  0.00     0.131 A 
ATOM     29  C   UNL     1      93.724   8.427  14.840  1.00  0.00     0.116 A 
ATOM     30  N   UNL     1      94.332   9.448  15.487  1.00  0.00    -0.251 NA
BRANCH  28  31
ATOM     31  C   UNL     1      94.950  10.516  17.516  1.00  0.00     0.269 C 
ATOM     32  O   UNL     1      95.219  10.443  18.729  1.00  0.00    -0.268 OA
ATOM     33  N   UNL     1      95.281  11.634  16.741  1.00  0.00    -0.354 N 
ATOM     34  C   UNL     1      95.957  12.799  17.264  1.00  0.00     0.143 C 
ATOM     35  H   UNL     1      95.063  11.622  15.748  1.00  0.00     0.163 HD
ENDBRANCH  28  31
ENDBRANCH  24  25
ENDBRANCH   2  24
TORSDOF 6
ENDMDL
MODEL 17
REMARK VINA RESULT:    -6.319     18.963     20.503
REMARK INTER + INTRA:          -9.217
REMARK INTER:                  -8.691
REMARK INTRA:                  -0.526
REMARK UNBOUND:                -0.681
REMARK SMILES CNC(=O)c1cc(Oc2ccc(NC(=O)Nc3ccc(Cl)c(C(F)(F)F)c3)cc2)ccn1
REMARK SMILES IDX 12 1 9 2 11 3 28 4 10 5 29 6 13 7 16 8 14 9 15 11 17 13
REMARK SMILES IDX 21 14 20 15 22 16 19 17 27 18 18 19 23 20 24 21 25 22 26 23
REMARK SMILES IDX 8 24 7 25 6 26 30 27 5 28 31 29 32 30 3 31 4 32 2 33 1 34
REMARK H PARENT 16 10 13 12 2 35
REMARK Flexibility Score: inf
ROOT
ATOM      1  C   UNL     1      96.015   9.425  20.282  1.00  0.00     0.043 A 
ATOM      2  C   UNL     1      96.891  10.186  17.767  1.00  0.00     0.127 A 
ATOM      3  C   UNL     1      95.288  10.361  19.566  1.00  0.00     0.030 A 
ATOM      4  C   UNL     1      97.170   8.861  19.767  1.00  0.00     0.030 A 
ATOM      5  C   UNL     1      95.729  10.745  18.299  1.00  0.00     0.049 A 
ATOM      6  C   UNL     1      97.612   9.244  18.501  1.00  0.00     0.049 A 
ENDROOT
BRANCH   1   7
ATOM      7  N   UNL     1      95.567   9.037  21.567  1.00  0.00    -0.308 N 
ATOM      8  N   UNL     1      94.234   8.526  23.383  1.00  0.00    -0.308 N 
ATOM      9  C   UNL     1      94.245   8.960  22.035  1.00  0.00     0.323 C 
ATOM     10  H   UNL     1      95.144   8.343  23.799  1.00  0.00     0.171 HD
ATOM     11  O   UNL     1      93.244   9.227  21.378  1.00  0.00    -0.248 OA
ATOM     12  H   UNL     1      96.299   8.784  22.227  1.00  0.00     0.171 HD
BRANCH   8  13
ATOM     13  C   UNL     1      93.138   8.318  24.221  1.00  0.00     0.043 A 
ATOM     14  Cl  UNL     1      89.609   7.669  26.961  1.00  0.00    -0.084 Cl
ATOM     15  C   UNL     1      90.947   7.903  25.897  1.00  0.00     0.053 A 
ATOM     16  C   UNL     1      91.007   7.267  24.657  1.00  0.00     0.076 A 
ATOM     17  C   UNL     1      91.983   8.746  26.299  1.00  0.00     0.023 A 
ATOM     18  C   UNL     1      92.102   7.475  23.819  1.00  0.00     0.040 A 
ATOM     19  C   UNL     1      93.078   8.954  25.461  1.00  0.00     0.028 A 
BRANCH  16  20
ATOM     20  C   UNL     1      89.919   6.354  24.190  1.00  0.00     0.417 C 
ATOM     21  F   UNL     1      88.718   6.980  24.024  1.00  0.00    -0.166 F 
ATOM     22  F   UNL     1      90.184   5.761  22.990  1.00  0.00    -0.166 F 
ATOM     23  F   UNL     1      89.685   5.332  25.063  1.00  0.00    -0.166 F 
ENDBRANCH  16  20
ENDBRANCH   8  13
ENDBRANCH   1   7
BRANCH   2  24
ATOM     24  O   UNL     1      97.321  10.560  16.531  1.00  0.00    -0.457 OA
BRANCH  24  25
ATOM     25  C   UNL     1      97.159   9.659  15.493  1.00  0.00     0.131 A 
ATOM     26  C   UNL     1      95.894   9.200  15.189  1.00  0.00     0.081 A 
ATOM     27  C   UNL     1      98.265   9.242  14.783  1.00  0.00     0.067 A 
ATOM     28  C   UNL     1      95.785   8.302  14.140  1.00  0.00     0.131 A 
ATOM     29  C   UNL     1      98.050   8.342  13.752  1.00  0.00     0.116 A 
ATOM     30  N   UNL     1      96.833   7.859  13.411  1.00  0.00    -0.251 NA
BRANCH  28  31
ATOM     31  C   UNL     1      94.486   7.774  13.762  1.00  0.00     0.269 C 
ATOM     32  O   UNL     1      93.485   8.514  13.734  1.00  0.00    -0.268 OA
ATOM     33  N   UNL     1      94.425   6.419  13.415  1.00  0.00    -0.354 N 
ATOM     34  C   UNL     1      93.214   5.753  12.995  1.00  0.00     0.143 C 
ATOM     35  H   UNL     1      95.283   5.873  13.428  1.00  0.00     0.163 HD
ENDBRANCH  28  31
ENDBRANCH  24  25
ENDBRANCH   2  24
TORSDOF 6
ENDMDL
MODEL 18
REMARK VINA RESULT:    -6.238     19.076     22.035
REMARK INTER + INTRA:          -9.107
REMARK INTER:                  -8.157
REMARK INTRA:                  -0.950
REMARK UNBOUND:                -0.681
REMARK SMILES CNC(=O)c1cc(Oc2ccc(NC(=O)Nc3ccc(Cl)c(C(F)(F)F)c3)cc2)ccn1
REMARK SMILES IDX 12 1 9 2 11 3 28 4 10 5 29 6 13 7 16 8 14 9 15 11 17 13
REMARK SMILES IDX 21 14 20 15 22 16 19 17 27 18 18 19 23 20 24 21 25 22 26 23
REMARK SMILES IDX 8 24 7 25 6 26 30 27 5 28 31 29 32 30 3 31 4 32 2 33 1 34
REMARK H PARENT 16 10 13 12 2 35
REMARK Flexibility Score: inf
ROOT
ATOM      1  C   UNL     1      95.705   9.782  19.602  1.00  0.00     0.043 A 
ATOM      2  C   UNL     1      96.736  11.395  17.601  1.00  0.00     0.127 A 
ATOM      3  C   UNL     1      96.883  10.474  19.830  1.00  0.00     0.030 A 
ATOM      4  C   UNL     1      95.031   9.880  18.396  1.00  0.00     0.030 A 
ATOM      5  C   UNL     1      97.403  11.286  18.822  1.00  0.00     0.049 A 
ATOM      6  C   UNL     1      95.550  10.692  17.388  1.00  0.00     0.049 A 
ENDROOT
BRANCH   1   7
ATOM      7  N   UNL     1      95.178   8.958  20.625  1.00  0.00    -0.308 N 
ATOM      8  N   UNL     1      93.931   8.157  22.397  1.00  0.00    -0.308 N 
ATOM      9  C   UNL     1      94.156   9.261  21.539  1.00  0.00     0.323 C 
ATOM     10  H   UNL     1      94.517   7.342  22.235  1.00  0.00     0.171 HD
ATOM     11  O   UNL     1      93.545  10.323  21.592  1.00  0.00    -0.248 OA
ATOM     12  H   UNL     1      95.596   8.033  20.700  1.00  0.00     0.171 HD
BRANCH   8  13
ATOM     13  C   UNL     1      93.012   8.039  23.440  1.00  0.00     0.043 A 
ATOM     14  Cl  UNL     1      90.062   7.679  26.839  1.00  0.00    -0.084 Cl
ATOM     15  C   UNL     1      91.175   7.803  25.526  1.00  0.00     0.053 A 
ATOM     16  C   UNL     1      90.957   7.129  24.325  1.00  0.00     0.076 A 
ATOM     17  C   UNL     1      92.312   8.595  25.685  1.00  0.00     0.023 A 
ATOM     18  C   UNL     1      91.874   7.247  23.282  1.00  0.00     0.040 A 
ATOM     19  C   UNL     1      93.231   8.713  24.641  1.00  0.00     0.028 A 
BRANCH  16  20
ATOM     20  C   UNL     1      89.752   6.268  24.116  1.00  0.00     0.417 C 
ATOM     21  F   UNL     1      88.586   6.973  24.048  1.00  0.00    -0.166 F 
ATOM     22  F   UNL     1      89.799   5.538  22.965  1.00  0.00    -0.166 F 
ATOM     23  F   UNL     1      89.577   5.362  25.121  1.00  0.00    -0.166 F 
ENDBRANCH  16  20
ENDBRANCH   8  13
ENDBRANCH   1   7
BRANCH   2  24
ATOM     24  O   UNL     1      97.244  12.187  16.618  1.00  0.00    -0.457 OA
BRANCH  24  25
ATOM     25  C   UNL     1      97.388  13.537  16.889  1.00  0.00     0.131 A 
ATOM     26  C   UNL     1      98.606  14.143  16.669  1.00  0.00     0.081 A 
ATOM     27  C   UNL     1      96.308  14.247  17.371  1.00  0.00     0.067 A 
ATOM     28  C   UNL     1      98.698  15.496  16.955  1.00  0.00     0.131 A 
ATOM     29  C   UNL     1      96.502  15.595  17.625  1.00  0.00     0.116 A 
ATOM     30  N   UNL     1      97.675  16.240  17.428  1.00  0.00    -0.251 NA
BRANCH  28  31
ATOM     31  C   UNL     1      99.950  16.204  16.749  1.00  0.00     0.269 C 
ATOM     32  O   UNL     1      99.973  17.447  16.689  1.00  0.00    -0.268 OA
ATOM     33  N   UNL     1     101.111  15.427  16.647  1.00  0.00    -0.354 N 
ATOM     34  C   UNL     1     102.432  15.983  16.466  1.00  0.00     0.143 C 
ATOM     35  H   UNL     1     101.032  14.418  16.735  1.00  0.00     0.163 HD
ENDBRANCH  28  31
ENDBRANCH  24  25
ENDBRANCH   2  24
TORSDOF 6
ENDMDL
MODEL 19
REMARK VINA RESULT:    -6.193      3.592      4.188
REMARK INTER + INTRA:          -9.047
REMARK INTER:                  -8.028
REMARK INTRA:                  -1.019
REMARK UNBOUND:                -0.681
REMARK SMILES CNC(=O)c1cc(Oc2ccc(NC(=O)Nc3ccc(Cl)c(C(F)(F)F)c3)cc2)ccn1
REMARK SMILES IDX 12 1 9 2 11 3 28 4 10 5 29 6 13 7 16 8 14 9 15 11 17 13
REMARK SMILES IDX 21 14 20 15 22 16 19 17 27 18 18 19 23 20 24 21 25 22 26 23
REMARK SMILES IDX 8 24 7 25 6 26 30 27 5 28 31 29 32 30 3 31 4 32 2 33 1 34
REMARK H PARENT 16 10 13 12 2 35
REMARK Flexibility Score: inf
ROOT
ATOM      1  C   UNL     1      97.159 -11.998  22.573  1.00  0.00     0.043 A 
ATOM      2  C   UNL     1      99.716 -12.148  21.519  1.00  0.00     0.127 A 
ATOM      3  C   UNL     1      98.192 -12.470  23.365  1.00  0.00     0.030 A 
ATOM      4  C   UNL     1      97.378 -11.598  21.265  1.00  0.00     0.030 A 
ATOM      5  C   UNL     1      99.480 -12.546  22.835  1.00  0.00     0.049 A 
ATOM      6  C   UNL     1      98.665 -11.674  20.734  1.00  0.00     0.049 A 
ENDROOT
BRANCH   1   7
ATOM      7  N   UNL     1      95.853 -11.922  23.111  1.00  0.00    -0.308 N 
ATOM      8  N   UNL     1      93.663 -12.393  23.676  1.00  0.00    -0.308 N 
ATOM      9  C   UNL     1      94.808 -12.852  22.981  1.00  0.00     0.323 C 
ATOM     10  H   UNL     1      93.758 -11.496  24.147  1.00  0.00     0.171 HD
ATOM     11  O   UNL     1      94.872 -13.907  22.359  1.00  0.00    -0.248 OA
ATOM     12  H   UNL     1      95.654 -11.088  23.659  1.00  0.00     0.171 HD
BRANCH   8  13
ATOM     13  C   UNL     1      92.416 -13.007  23.801  1.00  0.00     0.043 A 
ATOM     14  Cl  UNL     1      88.394 -15.011  24.237  1.00  0.00    -0.084 Cl
ATOM     15  C   UNL     1      89.924 -14.234  24.050  1.00  0.00     0.053 A 
ATOM     16  C   UNL     1      90.198 -13.431  22.943  1.00  0.00     0.076 A 
ATOM     17  C   UNL     1      90.896 -14.424  25.032  1.00  0.00     0.023 A 
ATOM     18  C   UNL     1      91.444 -12.817  22.818  1.00  0.00     0.040 A 
ATOM     19  C   UNL     1      92.142 -13.810  24.908  1.00  0.00     0.028 A 
BRANCH  16  20
ATOM     20  C   UNL     1      89.184 -13.204  21.868  1.00  0.00     0.417 C 
ATOM     21  F   UNL     1      88.921 -14.317  21.124  1.00  0.00    -0.166 F 
ATOM     22  F   UNL     1      87.973 -12.793  22.341  1.00  0.00    -0.166 F 
ATOM     23  F   UNL     1      89.575 -12.248  20.976  1.00  0.00    -0.166 F 
ENDBRANCH  16  20
ENDBRANCH   8  13
ENDBRANCH   1   7
BRANCH   2  24
ATOM     24  O   UNL     1     100.973 -12.223  21.002  1.00  0.00    -0.457 OA
BRANCH  24  25
ATOM     25  C   UNL     1     101.617 -11.034  20.703  1.00  0.00     0.131 A 
ATOM     26  C   UNL     1     101.809 -10.685  19.383  1.00  0.00     0.081 A 
ATOM     27  C   UNL     1     102.051 -10.226  21.731  1.00  0.00     0.067 A 
ATOM     28  C   UNL     1     102.457  -9.485  19.137  1.00  0.00     0.131 A 
ATOM     29  C   UNL     1     102.689  -9.047  21.381  1.00  0.00     0.116 A 
ATOM     30  N   UNL     1     102.904  -8.654  20.104  1.00  0.00    -0.251 NA
BRANCH  28  31
ATOM     31  C   UNL     1     102.696  -9.049  17.772  1.00  0.00     0.269 C 
ATOM     32  O   UNL     1     102.107  -9.595  16.820  1.00  0.00    -0.268 OA
ATOM     33  N   UNL     1     103.588  -7.986  17.589  1.00  0.00    -0.354 N 
ATOM     34  C   UNL     1     103.911  -7.424  16.298  1.00  0.00     0.143 C 
ATOM     35  H   UNL     1     104.015  -7.560  18.408  1.00  0.00     0.163 HD
ENDBRANCH  28  31
ENDBRANCH  24  25
ENDBRANCH   2  24
TORSDOF 6
ENDMDL
MODEL 20
REMARK VINA RESULT:    -6.171     19.309     22.004
REMARK INTER + INTRA:          -9.016
REMARK INTER:                  -8.253
REMARK INTRA:                  -0.763
REMARK UNBOUND:                -0.681
REMARK SMILES CNC(=O)c1cc(Oc2ccc(NC(=O)Nc3ccc(Cl)c(C(F)(F)F)c3)cc2)ccn1
REMARK SMILES IDX 12 1 9 2 11 3 28 4 10 5 29 6 13 7 16 8 14 9 15 11 17 13
REMARK SMILES IDX 21 14 20 15 22 16 19 17 27 18 18 19 23 20 24 21 25 22 26 23
REMARK SMILES IDX 8 24 7 25 6 26 30 27 5 28 31 29 32 30 3 31 4 32 2 33 1 34
REMARK H PARENT 16 10 13 12 2 35
REMARK Flexibility Score: inf
ROOT
ATOM      1  C   UNL     1      95.131  11.261  21.188  1.00  0.00     0.043 A 
ATOM      2  C   UNL     1      97.182  11.446  19.337  1.00  0.00     0.127 A 
ATOM      3  C   UNL     1      96.100  12.237  21.346  1.00  0.00     0.030 A 
ATOM      4  C   UNL     1      95.164  10.376  20.124  1.00  0.00     0.030 A 
ATOM      5  C   UNL     1      97.133  12.331  20.414  1.00  0.00     0.049 A 
ATOM      6  C   UNL     1      96.197  10.468  19.191  1.00  0.00     0.049 A 
ENDROOT
BRANCH   1   7
ATOM      7  N   UNL     1      94.083  11.166  22.135  1.00  0.00    -0.308 N 
ATOM      8  N   UNL     1      92.573  10.366  23.690  1.00  0.00    -0.308 N 
ATOM      9  C   UNL     1      93.653  10.029  22.838  1.00  0.00     0.323 C 
ATOM     10  H   UNL     1      92.278  11.339  23.669  1.00  0.00     0.171 HD
ATOM     11  O   UNL     1      94.137   8.907  22.735  1.00  0.00    -0.248 OA
ATOM     12  H   UNL     1      93.585  12.033  22.323  1.00  0.00     0.171 HD
BRANCH   8  13
ATOM     13  C   UNL     1      91.856   9.540  24.555  1.00  0.00     0.043 A 
ATOM     14  Cl  UNL     1      89.545   6.889  27.386  1.00  0.00    -0.084 Cl
ATOM     15  C   UNL     1      90.422   7.888  26.286  1.00  0.00     0.053 A 
ATOM     16  C   UNL     1      90.509   7.570  24.931  1.00  0.00     0.076 A 
ATOM     17  C   UNL     1      91.052   9.031  26.776  1.00  0.00     0.023 A 
ATOM     18  C   UNL     1      91.226   8.396  24.065  1.00  0.00     0.040 A 
ATOM     19  C   UNL     1      91.769   9.858  25.911  1.00  0.00     0.028 A 
BRANCH  16  20
ATOM     20  C   UNL     1      89.850   6.352  24.366  1.00  0.00     0.417 C 
ATOM     21  F   UNL     1      88.498   6.334  24.544  1.00  0.00    -0.166 F 
ATOM     22  F   UNL     1      90.037   6.206  23.023  1.00  0.00    -0.166 F 
ATOM     23  F   UNL     1      90.313   5.200  24.931  1.00  0.00    -0.166 F 
ENDBRANCH  16  20
ENDBRANCH   8  13
ENDBRANCH   1   7
BRANCH   2  24
ATOM     24  O   UNL     1      98.190  11.537  18.427  1.00  0.00    -0.457 OA
BRANCH  24  25
ATOM     25  C   UNL     1      97.853  11.848  17.121  1.00  0.00     0.131 A 
ATOM     26  C   UNL     1      97.232  13.049  16.852  1.00  0.00     0.081 A 
ATOM     27  C   UNL     1      98.148  10.951  16.117  1.00  0.00     0.067 A 
ATOM     28  C   UNL     1      96.917  13.314  15.529  1.00  0.00     0.131 A 
ATOM     29  C   UNL     1      97.792  11.309  14.826  1.00  0.00     0.116 A 
ATOM     30  N   UNL     1      97.181  12.472  14.506  1.00  0.00    -0.251 NA
BRANCH  28  31
ATOM     31  C   UNL     1      96.261  14.559  15.169  1.00  0.00     0.269 C 
ATOM     32  O   UNL     1      95.092  14.559  14.740  1.00  0.00    -0.268 OA
ATOM     33  N   UNL     1      96.993  15.739  15.348  1.00  0.00    -0.354 N 
ATOM     34  C   UNL     1      96.472  17.056  15.058  1.00  0.00     0.143 C 
ATOM     35  H   UNL     1      97.933  15.678  15.731  1.00  0.00     0.163 HD
ENDBRANCH  28  31
ENDBRANCH  24  25
ENDBRANCH   2  24
TORSDOF 6
ENDMDL
