REMARK SMILES CNC(=O)c1cc(Oc2ccc(NC(=O)Nc3ccc(Cl)c(C(F)(F)F)c3)cc2)ccn1
REMARK SMILES IDX 12 1 9 2 11 3 28 4 10 5 29 6 13 7 16 8 14 9 15 11 17 13
REMARK SMILES IDX 21 14 20 15 22 16 19 17 27 18 18 19 23 20 24 21 25 22 26 23
REMARK SMILES IDX 8 24 7 25 6 26 30 27 5 28 31 29 32 30 3 31 4 32 2 33 1 34
REMARK H PARENT 16 10 13 12 2 35
REMARK Flexibility Score: inf
ROOT
ATOM      1  C   UNL     1      95.798  -0.051  10.451  1.00  0.00     0.043 A 
ATOM      2  C   UNL     1      97.984   1.128  11.676  1.00  0.00     0.127 A 
ATOM      3  C   UNL     1      96.363  -0.659  11.559  1.00  0.00     0.030 A 
ATOM      4  C   UNL     1      96.301   1.136   9.943  1.00  0.00     0.030 A 
ATOM      5  C   UNL     1      97.465  -0.066  12.176  1.00  0.00     0.049 A 
ATOM      6  C   UNL     1      97.403   1.729  10.560  1.00  0.00     0.049 A 
ENDROOT
BRANCH   1   7
ATOM      7  N   UNL     1      94.681  -0.653   9.825  1.00  0.00    -0.308 N 
ATOM      8  N   UNL     1      92.543  -1.103   9.075  1.00  0.00    -0.308 N 
ATOM      9  C   UNL     1      93.348  -0.209   9.822  1.00  0.00     0.323 C 
ATOM     10  H   UNL     1      93.024  -1.902   8.669  1.00  0.00     0.171 HD
ATOM     11  O   UNL     1      92.937   0.801  10.381  1.00  0.00    -0.248 OA
ATOM     12  H   UNL     1      94.876  -1.512   9.317  1.00  0.00     0.171 HD
BRANCH   8  13
ATOM     13  C   UNL     1      91.172  -1.037   8.824  1.00  0.00     0.043 A 
ATOM     14  Cl  UNL     1      86.730  -0.816   8.050  1.00  0.00    -0.084 Cl
ATOM     15  C   UNL     1      88.432  -0.903   8.322  1.00  0.00     0.053 A 
ATOM     16  C   UNL     1      89.319  -1.166   7.279  1.00  0.00     0.076 A 
ATOM     17  C   UNL     1      88.914  -0.708   9.616  1.00  0.00     0.023 A 
ATOM     18  C   UNL     1      90.690  -1.232   7.530  1.00  0.00     0.040 A 
ATOM     19  C   UNL     1      90.284  -0.774   9.867  1.00  0.00     0.028 A 
BRANCH  16  20
ATOM     20  C   UNL     1      88.843  -1.383   5.879  1.00  0.00     0.417 C 
ATOM     21  F   UNL     1      89.851  -1.622   4.992  1.00  0.00    -0.166 F 
ATOM     22  F   UNL     1      87.993  -2.443   5.752  1.00  0.00    -0.166 F 
ATOM     23  F   UNL     1      88.165  -0.306   5.386  1.00  0.00    -0.166 F 
ENDBRANCH  16  20
ENDBRANCH   8  13
ENDBRANCH   1   7
BRANCH   2  24
ATOM     24  O   UNL     1      99.059   1.707  12.279  1.00  0.00    -0.457 OA
BRANCH  24  25
ATOM     25  C   UNL     1      98.866   2.288  13.520  1.00  0.00     0.131 A 
ATOM     26  C   UNL     1      99.874   2.224  14.459  1.00  0.00     0.081 A 
ATOM     27  C   UNL     1      97.670   2.919  13.791  1.00  0.00     0.067 A 
ATOM     28  C   UNL     1      99.632   2.822  15.685  1.00  0.00     0.131 A 
ATOM     29  C   UNL     1      97.526   3.486  15.046  1.00  0.00     0.116 A 
ATOM     30  N   UNL     1      98.480   3.454  16.005  1.00  0.00    -0.251 NA
BRANCH  28  31
ATOM     31  C   UNL     1     100.646   2.796  16.725  1.00  0.00     0.269 C 
ATOM     32  O   UNL     1     101.523   1.913  16.732  1.00  0.00    -0.268 OA
ATOM     33  N   UNL     1     100.599   3.813  17.686  1.00  0.00    -0.354 N 
ATOM     34  C   UNL     1     101.550   3.938  18.767  1.00  0.00     0.143 C 
ATOM     35  H   UNL     1      99.877   4.525  17.609  1.00  0.00     0.163 HD
ENDBRANCH  28  31
ENDBRANCH  24  25
ENDBRANCH   2  24
TORSDOF 6
