REMARK SMILES O=C(Nc1ccc2c(c1)OC(F)(F)O2)Nc1ccc(Cl)c(C(F)(F)F)c1
REMARK SMILES IDX 20 1 16 2 21 3 26 4 17 5 19 6 18 7 22 8 23 9 24 10 25 11
REMARK SMILES IDX 15 12 2 13 1 15 3 16 4 18 9 19 5 20 8 21 6 22 10 23 7 24
REMARK SMILES IDX 11 25 14 26 12 27 13 28
REMARK H PARENT 15 14 3 17
REMARK Flexibility Score: inf
ROOT
ATOM      1  Cl  UNL     1      95.363   5.926  15.968  1.00  0.00    -0.084 Cl
ATOM      2  C   UNL     1      92.823   7.586  12.625  1.00  0.00     0.043 A 
ATOM      3  C   UNL     1      93.560   7.681  14.924  1.00  0.00     0.076 A 
ATOM      4  C   UNL     1      92.780   8.187  13.884  1.00  0.00    -0.025 A 
ATOM      5  C   UNL     1      93.646   6.481  12.408  1.00  0.00    -0.037 A 
ATOM      6  C   UNL     1      94.382   6.576  14.707  1.00  0.00     0.053 A 
ATOM      7  C   UNL     1      94.426   5.976  13.448  1.00  0.00    -0.041 A 
ENDROOT
BRANCH   3   8
ATOM      8  C   UNL     1      93.488   8.354  16.257  1.00  0.00     0.417 C 
ATOM      9  F   UNL     1      92.925   9.594  16.186  1.00  0.00    -0.166 F 
ATOM     10  F   UNL     1      92.747   7.666  17.174  1.00  0.00    -0.166 F 
ATOM     11  F   UNL     1      94.706   8.535  16.843  1.00  0.00    -0.166 F 
ENDBRANCH   3   8
BRANCH   2  12
ATOM     12  N   UNL     1      92.031   8.097  11.570  1.00  0.00    -0.308 N 
ATOM     13  C   UNL     1      92.099   7.777  10.205  1.00  0.00     0.323 C 
ATOM     14  H   UNL     1      91.328   8.780  11.844  1.00  0.00     0.171 HD
ATOM     15  O   UNL     1      92.883   6.978   9.702  1.00  0.00    -0.248 OA
ATOM     16  N   UNL     1      91.126   8.514   9.486  1.00  0.00    -0.308 N 
ATOM     17  H   UNL     1      90.546   9.141  10.038  1.00  0.00     0.171 HD
BRANCH  16  18
ATOM     18  C   UNL     1      90.856   8.496   8.117  1.00  0.00     0.046 A 
ATOM     19  C   UNL     1      91.079   7.329   7.383  1.00  0.00     0.008 A 
ATOM     20  C   UNL     1      90.364   9.654   7.490  1.00  0.00    -0.035 A 
ATOM     21  C   UNL     1      90.798   7.359   6.032  1.00  0.00     0.174 A 
ATOM     22  C   UNL     1      90.087   9.659   6.121  1.00  0.00    -0.014 A 
ATOM     23  O   UNL     1      90.950   6.323   5.163  1.00  0.00    -0.395 OA
ATOM     24  C   UNL     1      90.314   8.493   5.418  1.00  0.00     0.172 A 
ATOM     25  C   UNL     1      90.510   6.943   3.945  1.00  0.00     0.586 C 
ATOM     26  O   UNL     1      90.104   8.311   4.085  1.00  0.00    -0.395 OA
ATOM     27  F   UNL     1      89.470   6.229   3.447  1.00  0.00    -0.125 F 
ATOM     28  F   UNL     1      91.518   6.881   3.039  1.00  0.00    -0.125 F 
ENDBRANCH  16  18
ENDBRANCH   2  12
TORSDOF 3
