MODEL 1
REMARK VINA RESULT:    -5.811      0.000      0.000
REMARK INTER + INTRA:          -8.419
REMARK INTER:                  -8.688
REMARK INTRA:                   0.268
REMARK UNBOUND:                -0.231
REMARK SMILES C=CCOC(=O)C1=CS[C@H]2[C@@H]([C@@H](C)OC(C)=O)C(=O)N12
REMARK SMILES IDX 9 1 8 2 7 3 20 4 10 5 11 6 18 7 19 8 5 9 6 10 4 11 3 12 2 13
REMARK SMILES IDX 1 14 12 15 13 16 14 17 15 18 17 19 16 20
REMARK H PARENT
REMARK Flexibility Score: inf
ROOT
ATOM      1  S   UNL     1      66.888  20.201  11.387  1.00  0.00    -0.105 SA
ATOM      2  C   UNL     1      65.750  20.740  10.163  1.00  0.00     0.004 C 
ATOM      3  C   UNL     1      64.946  21.750  10.511  1.00  0.00     0.137 C 
ATOM      4  N   UNL     1      65.076  22.184  11.806  1.00  0.00    -0.291 N 
ATOM      5  C   UNL     1      65.932  21.274  12.588  1.00  0.00     0.102 C 
ATOM      6  C   UNL     1      66.641  22.528  13.157  1.00  0.00     0.106 C 
ATOM      7  C   UNL     1      65.856  23.282  12.072  1.00  0.00     0.238 C 
ATOM      8  O   UNL     1      65.940  24.364  11.539  1.00  0.00    -0.274 OA
ENDROOT
BRANCH   3   9
ATOM      9  C   UNL     1      63.961  22.404   9.608  1.00  0.00     0.355 C 
ATOM     10  O   UNL     1      62.752  22.257   9.701  1.00  0.00    -0.244 OA
BRANCH   9  11
ATOM     11  O   UNL     1      64.597  23.163   8.681  1.00  0.00    -0.457 OA
BRANCH  11  12
ATOM     12  C   UNL     1      64.601  22.584   7.375  1.00  0.00     0.110 C 
BRANCH  12  13
ATOM     13  C   UNL     1      63.981  23.584   6.448  1.00  0.00    -0.054 C 
ATOM     14  C   UNL     1      62.689  23.598   6.094  1.00  0.00    -0.100 C 
ENDBRANCH  12  13
ENDBRANCH  11  12
ENDBRANCH   9  11
ENDBRANCH   3   9
BRANCH   6  15
ATOM     15  C   UNL     1      68.157  22.675  13.101  1.00  0.00     0.113 C 
ATOM     16  C   UNL     1      68.533  24.144  12.921  1.00  0.00    -0.027 C 
BRANCH  15  17
ATOM     17  O   UNL     1      68.667  22.238  14.383  1.00  0.00    -0.462 OA
BRANCH  17  18
ATOM     18  C   UNL     1      68.988  20.957  14.683  1.00  0.00     0.302 C 
ATOM     19  O   UNL     1      69.296  20.168  13.795  1.00  0.00    -0.253 OA
ATOM     20  C   UNL     1      68.974  20.552  16.126  1.00  0.00     0.034 C 
ENDBRANCH  17  18
ENDBRANCH  15  17
ENDBRANCH   6  15
TORSDOF 7
ENDMDL
MODEL 2
REMARK VINA RESULT:    -5.401      3.412      5.242
REMARK INTER + INTRA:          -7.842
REMARK INTER:                  -7.669
REMARK INTRA:                  -0.173
REMARK UNBOUND:                -0.231
REMARK SMILES C=CCOC(=O)C1=CS[C@H]2[C@@H]([C@@H](C)OC(C)=O)C(=O)N12
REMARK SMILES IDX 9 1 8 2 7 3 20 4 10 5 11 6 18 7 19 8 5 9 6 10 4 11 3 12 2 13
REMARK SMILES IDX 1 14 12 15 13 16 14 17 15 18 17 19 16 20
REMARK H PARENT
REMARK Flexibility Score: inf
ROOT
ATOM      1  S   UNL     1      65.241  21.243   6.532  1.00  0.00    -0.105 SA
ATOM      2  C   UNL     1      64.522  22.401   5.425  1.00  0.00     0.004 C 
ATOM      3  C   UNL     1      63.258  22.754   5.681  1.00  0.00     0.137 C 
ATOM      4  N   UNL     1      62.672  22.108   6.741  1.00  0.00    -0.291 N 
ATOM      5  C   UNL     1      63.516  20.999   7.220  1.00  0.00     0.102 C 
ATOM      6  C   UNL     1      63.239  21.491   8.662  1.00  0.00     0.106 C 
ATOM      7  C   UNL     1      62.639  22.724   7.968  1.00  0.00     0.238 C 
ATOM      8  O   UNL     1      62.357  23.851   8.301  1.00  0.00    -0.274 OA
ENDROOT
BRANCH   3   9
ATOM      9  C   UNL     1      62.485  23.768   4.916  1.00  0.00     0.355 C 
ATOM     10  O   UNL     1      61.264  23.806   4.880  1.00  0.00    -0.244 OA
BRANCH   9  11
ATOM     11  O   UNL     1      63.322  24.616   4.269  1.00  0.00    -0.457 OA
BRANCH  11  12
ATOM     12  C   UNL     1      63.094  24.680   2.860  1.00  0.00     0.110 C 
BRANCH  12  13
ATOM     13  C   UNL     1      64.438  24.700   2.197  1.00  0.00    -0.054 C 
ATOM     14  C   UNL     1      65.305  25.719   2.260  1.00  0.00    -0.100 C 
ENDBRANCH  12  13
ENDBRANCH  11  12
ENDBRANCH   9  11
ENDBRANCH   3   9
BRANCH   6  15
ATOM     15  C   UNL     1      64.377  21.767   9.637  1.00  0.00     0.113 C 
ATOM     16  C   UNL     1      63.823  22.368  10.928  1.00  0.00    -0.027 C 
BRANCH  15  17
ATOM     17  O   UNL     1      64.972  20.488   9.959  1.00  0.00    -0.462 OA
BRANCH  17  18
ATOM     18  C   UNL     1      66.274  20.311  10.290  1.00  0.00     0.302 C 
ATOM     19  O   UNL     1      67.102  20.032   9.430  1.00  0.00    -0.253 OA
ATOM     20  C   UNL     1      66.660  20.489  11.727  1.00  0.00     0.034 C 
ENDBRANCH  17  18
ENDBRANCH  15  17
ENDBRANCH   6  15
TORSDOF 7
ENDMDL
MODEL 3
REMARK VINA RESULT:    -5.358      2.523      3.371
REMARK INTER + INTRA:          -7.781
REMARK INTER:                  -8.773
REMARK INTRA:                   0.992
REMARK UNBOUND:                -0.231
REMARK SMILES C=CCOC(=O)C1=CS[C@H]2[C@@H]([C@@H](C)OC(C)=O)C(=O)N12
REMARK SMILES IDX 9 1 8 2 7 3 20 4 10 5 11 6 18 7 19 8 5 9 6 10 4 11 3 12 2 13
REMARK SMILES IDX 1 14 12 15 13 16 14 17 15 18 17 19 16 20
REMARK H PARENT
REMARK Flexibility Score: inf
ROOT
ATOM      1  S   UNL     1      67.597  20.326  11.978  1.00  0.00    -0.105 SA
ATOM      2  C   UNL     1      67.174  19.944  10.317  1.00  0.00     0.004 C 
ATOM      3  C   UNL     1      66.010  20.435   9.879  1.00  0.00     0.137 C 
ATOM      4  N   UNL     1      65.271  21.117  10.813  1.00  0.00    -0.291 N 
ATOM      5  C   UNL     1      65.844  20.957  12.163  1.00  0.00     0.102 C 
ATOM      6  C   UNL     1      65.643  22.480  12.361  1.00  0.00     0.106 C 
ATOM      7  C   UNL     1      65.341  22.487  10.854  1.00  0.00     0.238 C 
ATOM      8  O   UNL     1      65.300  23.327   9.986  1.00  0.00    -0.274 OA
ENDROOT
BRANCH   3   9
ATOM      9  C   UNL     1      65.493  20.291   8.492  1.00  0.00     0.355 C 
ATOM     10  O   UNL     1      66.184  20.420   7.492  1.00  0.00    -0.244 OA
BRANCH   9  11
ATOM     11  O   UNL     1      64.165  20.014   8.505  1.00  0.00    -0.457 OA
BRANCH  11  12
ATOM     12  C   UNL     1      63.496  20.366   7.293  1.00  0.00     0.110 C 
BRANCH  12  13
ATOM     13  C   UNL     1      62.646  21.563   7.590  1.00  0.00    -0.054 C 
ATOM     14  C   UNL     1      62.218  21.910   8.812  1.00  0.00    -0.100 C 
ENDBRANCH  12  13
ENDBRANCH  11  12
ENDBRANCH   9  11
ENDBRANCH   3   9
BRANCH   6  15
ATOM     15  C   UNL     1      66.788  23.378  12.813  1.00  0.00     0.113 C 
ATOM     16  C   UNL     1      67.805  23.533  11.684  1.00  0.00    -0.027 C 
BRANCH  15  17
ATOM     17  O   UNL     1      66.218  24.680  13.083  1.00  0.00    -0.462 OA
BRANCH  17  18
ATOM     18  C   UNL     1      66.720  25.848  12.613  1.00  0.00     0.302 C 
ATOM     19  O   UNL     1      66.406  26.257  11.500  1.00  0.00    -0.253 OA
ATOM     20  C   UNL     1      67.644  26.621  13.504  1.00  0.00     0.034 C 
ENDBRANCH  17  18
ENDBRANCH  15  17
ENDBRANCH   6  15
TORSDOF 7
ENDMDL
MODEL 4
REMARK VINA RESULT:    -5.331      2.009      6.786
REMARK INTER + INTRA:          -7.743
REMARK INTER:                  -8.116
REMARK INTRA:                   0.372
REMARK UNBOUND:                -0.231
REMARK SMILES C=CCOC(=O)C1=CS[C@H]2[C@@H]([C@@H](C)OC(C)=O)C(=O)N12
REMARK SMILES IDX 9 1 8 2 7 3 20 4 10 5 11 6 18 7 19 8 5 9 6 10 4 11 3 12 2 13
REMARK SMILES IDX 1 14 12 15 13 16 14 17 15 18 17 19 16 20
REMARK H PARENT
REMARK Flexibility Score: inf
ROOT
ATOM      1  S   UNL     1      66.983  24.164  11.713  1.00  0.00    -0.105 SA
ATOM      2  C   UNL     1      68.131  23.258  12.685  1.00  0.00     0.004 C 
ATOM      3  C   UNL     1      67.669  22.137  13.247  1.00  0.00     0.137 C 
ATOM      4  N   UNL     1      66.337  21.881  13.041  1.00  0.00    -0.291 N 
ATOM      5  C   UNL     1      65.665  23.037  12.420  1.00  0.00     0.102 C 
ATOM      6  C   UNL     1      64.975  22.040  11.456  1.00  0.00     0.106 C 
ATOM      7  C   UNL     1      65.966  21.020  12.038  1.00  0.00     0.238 C 
ATOM      8  O   UNL     1      66.381  19.934  11.708  1.00  0.00    -0.274 OA
ENDROOT
BRANCH   3   9
ATOM      9  C   UNL     1      68.487  21.187  14.049  1.00  0.00     0.355 C 
ATOM     10  O   UNL     1      68.616  21.257  15.262  1.00  0.00    -0.244 OA
BRANCH   9  11
ATOM     11  O   UNL     1      69.063  20.259  13.245  1.00  0.00    -0.457 OA
BRANCH  11  12
ATOM     12  C   UNL     1      69.354  19.028  13.909  1.00  0.00     0.110 C 
BRANCH  12  13
ATOM     13  C   UNL     1      68.995  17.922  12.964  1.00  0.00    -0.054 C 
ATOM     14  C   UNL     1      67.996  17.050  13.155  1.00  0.00    -0.100 C 
ENDBRANCH  12  13
ENDBRANCH  11  12
ENDBRANCH   9  11
ENDBRANCH   3   9
BRANCH   6  15
ATOM     15  C   UNL     1      65.031  22.232   9.946  1.00  0.00     0.113 C 
ATOM     16  C   UNL     1      64.804  20.896   9.242  1.00  0.00    -0.027 C 
BRANCH  15  17
ATOM     17  O   UNL     1      63.938  23.113   9.594  1.00  0.00    -0.462 OA
BRANCH  17  18
ATOM     18  C   UNL     1      62.941  22.791   8.735  1.00  0.00     0.302 C 
ATOM     19  O   UNL     1      61.929  22.228   9.139  1.00  0.00    -0.253 OA
ATOM     20  C   UNL     1      63.113  23.165   7.294  1.00  0.00     0.034 C 
ENDBRANCH  17  18
ENDBRANCH  15  17
ENDBRANCH   6  15
TORSDOF 7
ENDMDL
MODEL 5
REMARK VINA RESULT:    -5.329      1.957      7.227
REMARK INTER + INTRA:          -7.741
REMARK INTER:                  -7.931
REMARK INTRA:                   0.190
REMARK UNBOUND:                -0.231
REMARK SMILES C=CCOC(=O)C1=CS[C@H]2[C@@H]([C@@H](C)OC(C)=O)C(=O)N12
REMARK SMILES IDX 9 1 8 2 7 3 20 4 10 5 11 6 18 7 19 8 5 9 6 10 4 11 3 12 2 13
REMARK SMILES IDX 1 14 12 15 13 16 14 17 15 18 17 19 16 20
REMARK H PARENT
REMARK Flexibility Score: inf
ROOT
ATOM      1  S   UNL     1      66.742  19.640  10.734  1.00  0.00    -0.105 SA
ATOM      2  C   UNL     1      67.771  19.213  12.092  1.00  0.00     0.004 C 
ATOM      3  C   UNL     1      68.284  20.235  12.784  1.00  0.00     0.137 C 
ATOM      4  N   UNL     1      67.989  21.483  12.295  1.00  0.00    -0.291 N 
ATOM      5  C   UNL     1      67.346  21.396  10.972  1.00  0.00     0.102 C 
ATOM      6  C   UNL     1      66.324  22.449  11.468  1.00  0.00     0.106 C 
ATOM      7  C   UNL     1      66.952  22.192  12.847  1.00  0.00     0.238 C 
ATOM      8  O   UNL     1      66.631  22.398  13.994  1.00  0.00    -0.274 OA
ENDROOT
BRANCH   3   9
ATOM      9  C   UNL     1      69.121  20.100  14.007  1.00  0.00     0.355 C 
ATOM     10  O   UNL     1      69.309  21.006  14.805  1.00  0.00    -0.244 OA
BRANCH   9  11
ATOM     11  O   UNL     1      69.641  18.850  14.092  1.00  0.00    -0.457 OA
BRANCH  11  12
ATOM     12  C   UNL     1      69.306  18.174  15.305  1.00  0.00     0.110 C 
BRANCH  12  13
ATOM     13  C   UNL     1      70.539  18.161  16.157  1.00  0.00    -0.054 C 
ATOM     14  C   UNL     1      70.686  17.437  17.274  1.00  0.00    -0.100 C 
ENDBRANCH  12  13
ENDBRANCH  11  12
ENDBRANCH   9  11
ENDBRANCH   3   9
BRANCH   6  15
ATOM     15  C   UNL     1      64.823  22.206  11.367  1.00  0.00     0.113 C 
ATOM     16  C   UNL     1      64.080  23.115  12.343  1.00  0.00    -0.027 C 
BRANCH  15  17
ATOM     17  O   UNL     1      64.429  22.575  10.024  1.00  0.00    -0.462 OA
BRANCH  17  18
ATOM     18  C   UNL     1      63.461  21.950   9.312  1.00  0.00     0.302 C 
ATOM     19  O   UNL     1      62.289  22.298   9.415  1.00  0.00    -0.253 OA
ATOM     20  C   UNL     1      63.876  20.846   8.387  1.00  0.00     0.034 C 
ENDBRANCH  17  18
ENDBRANCH  15  17
ENDBRANCH   6  15
TORSDOF 7
ENDMDL
MODEL 6
REMARK VINA RESULT:    -5.303      3.331      5.653
REMARK INTER + INTRA:          -7.704
REMARK INTER:                  -7.463
REMARK INTRA:                  -0.240
REMARK UNBOUND:                -0.231
REMARK SMILES C=CCOC(=O)C1=CS[C@H]2[C@@H]([C@@H](C)OC(C)=O)C(=O)N12
REMARK SMILES IDX 9 1 8 2 7 3 20 4 10 5 11 6 18 7 19 8 5 9 6 10 4 11 3 12 2 13
REMARK SMILES IDX 1 14 12 15 13 16 14 17 15 18 17 19 16 20
REMARK H PARENT
REMARK Flexibility Score: inf
ROOT
ATOM      1  S   UNL     1      69.396  19.587  16.174  1.00  0.00    -0.105 SA
ATOM      2  C   UNL     1      68.665  21.113  15.704  1.00  0.00     0.004 C 
ATOM      3  C   UNL     1      68.665  21.387  14.396  1.00  0.00     0.137 C 
ATOM      4  N   UNL     1      69.299  20.464  13.602  1.00  0.00    -0.291 N 
ATOM      5  C   UNL     1      70.035  19.480  14.417  1.00  0.00     0.102 C 
ATOM      6  C   UNL     1      69.448  18.376  13.502  1.00  0.00     0.106 C 
ATOM      7  C   UNL     1      68.554  19.504  12.963  1.00  0.00     0.238 C 
ATOM      8  O   UNL     1      67.524  19.564  12.334  1.00  0.00    -0.274 OA
ENDROOT
BRANCH   3   9
ATOM      9  C   UNL     1      68.039  22.587  13.776  1.00  0.00     0.355 C 
ATOM     10  O   UNL     1      68.671  23.553  13.376  1.00  0.00    -0.244 OA
BRANCH   9  11
ATOM     11  O   UNL     1      66.690  22.451  13.735  1.00  0.00    -0.457 OA
BRANCH  11  12
ATOM     12  C   UNL     1      66.085  23.103  12.617  1.00  0.00     0.110 C 
BRANCH  12  13
ATOM     13  C   UNL     1      65.087  22.146  12.038  1.00  0.00    -0.054 C 
ATOM     14  C   UNL     1      64.042  22.501  11.280  1.00  0.00    -0.100 C 
ENDBRANCH  12  13
ENDBRANCH  11  12
ENDBRANCH   9  11
ENDBRANCH   3   9
BRANCH   6  15
ATOM     15  C   UNL     1      68.718  17.172  14.083  1.00  0.00     0.113 C 
ATOM     16  C   UNL     1      68.237  16.260  12.956  1.00  0.00    -0.027 C 
BRANCH  15  17
ATOM     17  O   UNL     1      69.684  16.436  14.870  1.00  0.00    -0.462 OA
BRANCH  17  18
ATOM     18  C   UNL     1      69.427  15.893  16.084  1.00  0.00     0.302 C 
ATOM     19  O   UNL     1      68.408  15.235  16.269  1.00  0.00    -0.253 OA
ATOM     20  C   UNL     1      70.435  16.106  17.173  1.00  0.00     0.034 C 
ENDBRANCH  17  18
ENDBRANCH  15  17
ENDBRANCH   6  15
TORSDOF 7
ENDMDL
MODEL 7
REMARK VINA RESULT:    -5.225      3.601      5.542
REMARK INTER + INTRA:          -7.593
REMARK INTER:                  -7.523
REMARK INTRA:                  -0.070
REMARK UNBOUND:                -0.231
REMARK SMILES C=CCOC(=O)C1=CS[C@H]2[C@@H]([C@@H](C)OC(C)=O)C(=O)N12
REMARK SMILES IDX 9 1 8 2 7 3 20 4 10 5 11 6 18 7 19 8 5 9 6 10 4 11 3 12 2 13
REMARK SMILES IDX 1 14 12 15 13 16 14 17 15 18 17 19 16 20
REMARK H PARENT
REMARK Flexibility Score: inf
ROOT
ATOM      1  S   UNL     1      65.145  21.157   6.315  1.00  0.00    -0.105 SA
ATOM      2  C   UNL     1      64.430  22.325   5.216  1.00  0.00     0.004 C 
ATOM      3  C   UNL     1      63.177  22.700   5.492  1.00  0.00     0.137 C 
ATOM      4  N   UNL     1      62.596  22.067   6.562  1.00  0.00    -0.291 N 
ATOM      5  C   UNL     1      63.428  20.943   7.030  1.00  0.00     0.102 C 
ATOM      6  C   UNL     1      63.182  21.443   8.475  1.00  0.00     0.106 C 
ATOM      7  C   UNL     1      62.593  22.685   7.788  1.00  0.00     0.238 C 
ATOM      8  O   UNL     1      62.335  23.818   8.123  1.00  0.00    -0.274 OA
ENDROOT
BRANCH   3   9
ATOM      9  C   UNL     1      62.409  23.726   4.737  1.00  0.00     0.355 C 
ATOM     10  O   UNL     1      62.923  24.555   4.000  1.00  0.00    -0.244 OA
BRANCH   9  11
ATOM     11  O   UNL     1      61.082  23.612   4.994  1.00  0.00    -0.457 OA
BRANCH  11  12
ATOM     12  C   UNL     1      60.314  23.200   3.861  1.00  0.00     0.110 C 
BRANCH  12  13
ATOM     13  C   UNL     1      59.231  24.217   3.670  1.00  0.00    -0.054 C 
ATOM     14  C   UNL     1      57.924  23.983   3.849  1.00  0.00    -0.100 C 
ENDBRANCH  12  13
ENDBRANCH  11  12
ENDBRANCH   9  11
ENDBRANCH   3   9
BRANCH   6  15
ATOM     15  C   UNL     1      64.339  21.701   9.432  1.00  0.00     0.113 C 
ATOM     16  C   UNL     1      63.813  22.283  10.742  1.00  0.00    -0.027 C 
BRANCH  15  17
ATOM     17  O   UNL     1      64.936  20.415   9.723  1.00  0.00    -0.462 OA
BRANCH  17  18
ATOM     18  C   UNL     1      66.257  20.218   9.948  1.00  0.00     0.302 C 
ATOM     19  O   UNL     1      66.980  19.774   9.062  1.00  0.00    -0.253 OA
ATOM     20  C   UNL     1      66.798  20.580  11.299  1.00  0.00     0.034 C 
ENDBRANCH  17  18
ENDBRANCH  15  17
ENDBRANCH   6  15
TORSDOF 7
ENDMDL
MODEL 8
REMARK VINA RESULT:    -5.210      3.917      8.122
REMARK INTER + INTRA:          -7.573
REMARK INTER:                  -7.370
REMARK INTRA:                  -0.203
REMARK UNBOUND:                -0.231
REMARK SMILES C=CCOC(=O)C1=CS[C@H]2[C@@H]([C@@H](C)OC(C)=O)C(=O)N12
REMARK SMILES IDX 9 1 8 2 7 3 20 4 10 5 11 6 18 7 19 8 5 9 6 10 4 11 3 12 2 13
REMARK SMILES IDX 1 14 12 15 13 16 14 17 15 18 17 19 16 20
REMARK H PARENT
REMARK Flexibility Score: inf
ROOT
ATOM      1  S   UNL     1      66.004  22.285   5.671  1.00  0.00    -0.105 SA
ATOM      2  C   UNL     1      64.979  21.461   6.835  1.00  0.00     0.004 C 
ATOM      3  C   UNL     1      63.965  22.175   7.334  1.00  0.00     0.137 C 
ATOM      4  N   UNL     1      63.904  23.480   6.917  1.00  0.00    -0.291 N 
ATOM      5  C   UNL     1      65.120  23.857   6.173  1.00  0.00     0.102 C 
ATOM      6  C   UNL     1      64.197  24.532   5.127  1.00  0.00     0.106 C 
ATOM      7  C   UNL     1      63.066  23.817   5.883  1.00  0.00     0.238 C 
ATOM      8  O   UNL     1      61.917  23.527   5.645  1.00  0.00    -0.274 OA
ENDROOT
BRANCH   3   9
ATOM      9  C   UNL     1      62.939  21.653   8.277  1.00  0.00     0.355 C 
ATOM     10  O   UNL     1      62.152  20.760   7.999  1.00  0.00    -0.244 OA
BRANCH   9  11
ATOM     11  O   UNL     1      63.001  22.313   9.460  1.00  0.00    -0.457 OA
BRANCH  11  12
ATOM     12  C   UNL     1      64.027  21.830  10.330  1.00  0.00     0.110 C 
BRANCH  12  13
ATOM     13  C   UNL     1      64.004  22.689  11.557  1.00  0.00    -0.054 C 
ATOM     14  C   UNL     1      65.089  23.046  12.258  1.00  0.00    -0.100 C 
ENDBRANCH  12  13
ENDBRANCH  11  12
ENDBRANCH   9  11
ENDBRANCH   3   9
BRANCH   6  15
ATOM     15  C   UNL     1      64.312  24.207   3.643  1.00  0.00     0.113 C 
ATOM     16  C   UNL     1      63.149  24.836   2.880  1.00  0.00    -0.027 C 
BRANCH  15  17
ATOM     17  O   UNL     1      65.537  24.818   3.174  1.00  0.00    -0.462 OA
BRANCH  17  18
ATOM     18  C   UNL     1      66.482  24.178   2.445  1.00  0.00     0.302 C 
ATOM     19  O   UNL     1      66.285  23.039   2.034  1.00  0.00    -0.253 OA
ATOM     20  C   UNL     1      67.753  24.914   2.147  1.00  0.00     0.034 C 
ENDBRANCH  17  18
ENDBRANCH  15  17
ENDBRANCH   6  15
TORSDOF 7
ENDMDL
MODEL 9
REMARK VINA RESULT:    -5.206      3.045      4.952
REMARK INTER + INTRA:          -7.568
REMARK INTER:                  -7.269
REMARK INTRA:                  -0.299
REMARK UNBOUND:                -0.231
REMARK SMILES C=CCOC(=O)C1=CS[C@H]2[C@@H]([C@@H](C)OC(C)=O)C(=O)N12
REMARK SMILES IDX 9 1 8 2 7 3 20 4 10 5 11 6 18 7 19 8 5 9 6 10 4 11 3 12 2 13
REMARK SMILES IDX 1 14 12 15 13 16 14 17 15 18 17 19 16 20
REMARK H PARENT
REMARK Flexibility Score: inf
ROOT
ATOM      1  S   UNL     1      68.002  20.533  13.290  1.00  0.00    -0.105 SA
ATOM      2  C   UNL     1      67.021  21.989  13.325  1.00  0.00     0.004 C 
ATOM      3  C   UNL     1      66.541  22.404  12.148  1.00  0.00     0.137 C 
ATOM      4  N   UNL     1      66.939  21.668  11.060  1.00  0.00    -0.291 N 
ATOM      5  C   UNL     1      67.997  20.709  11.426  1.00  0.00     0.102 C 
ATOM      6  C   UNL     1      67.229  19.643  10.603  1.00  0.00     0.106 C 
ATOM      7  C   UNL     1      66.107  20.693  10.568  1.00  0.00     0.238 C 
ATOM      8  O   UNL     1      64.922  20.682  10.334  1.00  0.00    -0.274 OA
ENDROOT
BRANCH   3   9
ATOM      9  C   UNL     1      65.634  23.568  11.960  1.00  0.00     0.355 C 
ATOM     10  O   UNL     1      64.473  23.593  12.338  1.00  0.00    -0.244 OA
BRANCH   9  11
ATOM     11  O   UNL     1      66.277  24.570  11.309  1.00  0.00    -0.457 OA
BRANCH  11  12
ATOM     12  C   UNL     1      66.246  25.816  12.008  1.00  0.00     0.110 C 
BRANCH  12  13
ATOM     13  C   UNL     1      67.515  25.907  12.801  1.00  0.00    -0.054 C 
ATOM     14  C   UNL     1      67.638  26.547  13.971  1.00  0.00    -0.100 C 
ENDBRANCH  12  13
ENDBRANCH  11  12
ENDBRANCH   9  11
ENDBRANCH   3   9
BRANCH   6  15
ATOM     15  C   UNL     1      66.858  18.295  11.206  1.00  0.00     0.113 C 
ATOM     16  C   UNL     1      66.180  17.421  10.152  1.00  0.00    -0.027 C 
BRANCH  15  17
ATOM     17  O   UNL     1      68.096  17.651  11.590  1.00  0.00    -0.462 OA
BRANCH  17  18
ATOM     18  C   UNL     1      68.183  16.615  12.458  1.00  0.00     0.302 C 
ATOM     19  O   UNL     1      67.683  16.695  13.575  1.00  0.00    -0.253 OA
ATOM     20  C   UNL     1      68.887  15.375  11.997  1.00  0.00     0.034 C 
ENDBRANCH  17  18
ENDBRANCH  15  17
ENDBRANCH   6  15
TORSDOF 7
ENDMDL
MODEL 10
REMARK VINA RESULT:    -5.188      4.299      5.973
REMARK INTER + INTRA:          -7.542
REMARK INTER:                  -7.389
REMARK INTRA:                  -0.153
REMARK UNBOUND:                -0.231
REMARK SMILES C=CCOC(=O)C1=CS[C@H]2[C@@H]([C@@H](C)OC(C)=O)C(=O)N12
REMARK SMILES IDX 9 1 8 2 7 3 20 4 10 5 11 6 18 7 19 8 5 9 6 10 4 11 3 12 2 13
REMARK SMILES IDX 1 14 12 15 13 16 14 17 15 18 17 19 16 20
REMARK H PARENT
REMARK Flexibility Score: inf
ROOT
ATOM      1  S   UNL     1      69.461  19.407  15.931  1.00  0.00    -0.105 SA
ATOM      2  C   UNL     1      68.559  20.887  15.652  1.00  0.00     0.004 C 
ATOM      3  C   UNL     1      68.431  21.265  14.375  1.00  0.00     0.137 C 
ATOM      4  N   UNL     1      69.082  20.476  13.461  1.00  0.00    -0.291 N 
ATOM      5  C   UNL     1      69.967  19.506  14.131  1.00  0.00     0.102 C 
ATOM      6  C   UNL     1      69.413  18.428  13.166  1.00  0.00     0.106 C 
ATOM      7  C   UNL     1      68.380  19.503  12.793  1.00  0.00     0.238 C 
ATOM      8  O   UNL     1      67.302  19.513  12.246  1.00  0.00    -0.274 OA
ENDROOT
BRANCH   3   9
ATOM      9  C   UNL     1      67.651  22.444  13.910  1.00  0.00     0.355 C 
ATOM     10  O   UNL     1      66.450  22.419  13.685  1.00  0.00    -0.244 OA
BRANCH   9  11
ATOM     11  O   UNL     1      68.461  23.523  13.767  1.00  0.00    -0.457 OA
BRANCH  11  12
ATOM     12  C   UNL     1      68.416  24.101  12.461  1.00  0.00     0.110 C 
BRANCH  12  13
ATOM     13  C   UNL     1      67.515  25.295  12.538  1.00  0.00    -0.054 C 
ATOM     14  C   UNL     1      67.444  26.130  13.583  1.00  0.00    -0.100 C 
ENDBRANCH  12  13
ENDBRANCH  11  12
ENDBRANCH   9  11
ENDBRANCH   3   9
BRANCH   6  15
ATOM     15  C   UNL     1      68.844  17.115  13.689  1.00  0.00     0.113 C 
ATOM     16  C   UNL     1      68.451  16.214  12.519  1.00  0.00    -0.027 C 
BRANCH  15  17
ATOM     17  O   UNL     1      69.907  16.458  14.419  1.00  0.00    -0.462 OA
BRANCH  17  18
ATOM     18  C   UNL     1      69.715  15.645  15.485  1.00  0.00     0.302 C 
ATOM     19  O   UNL     1      68.622  15.593  16.039  1.00  0.00    -0.253 OA
ATOM     20  C   UNL     1      70.870  14.805  15.941  1.00  0.00     0.034 C 
ENDBRANCH  17  18
ENDBRANCH  15  17
ENDBRANCH   6  15
TORSDOF 7
ENDMDL
MODEL 11
REMARK VINA RESULT:    -5.104      8.999     12.586
REMARK INTER + INTRA:          -7.423
REMARK INTER:                  -7.153
REMARK INTRA:                  -0.270
REMARK UNBOUND:                -0.231
REMARK SMILES C=CCOC(=O)C1=CS[C@H]2[C@@H]([C@@H](C)OC(C)=O)C(=O)N12
REMARK SMILES IDX 9 1 8 2 7 3 20 4 10 5 11 6 18 7 19 8 5 9 6 10 4 11 3 12 2 13
REMARK SMILES IDX 1 14 12 15 13 16 14 17 15 18 17 19 16 20
REMARK H PARENT
REMARK Flexibility Score: inf
ROOT
ATOM      1  S   UNL     1      57.315  22.577   3.509  1.00  0.00    -0.105 SA
ATOM      2  C   UNL     1      56.168  22.882   2.214  1.00  0.00     0.004 C 
ATOM      3  C   UNL     1      56.093  24.144   1.781  1.00  0.00     0.137 C 
ATOM      4  N   UNL     1      56.878  25.045   2.456  1.00  0.00    -0.291 N 
ATOM      5  C   UNL     1      57.464  24.437   3.664  1.00  0.00     0.102 C 
ATOM      6  C   UNL     1      58.811  25.089   3.263  1.00  0.00     0.106 C 
ATOM      7  C   UNL     1      58.099  25.394   1.936  1.00  0.00     0.238 C 
ATOM      8  O   UNL     1      58.447  25.697   0.819  1.00  0.00    -0.274 OA
ENDROOT
BRANCH   3   9
ATOM      9  C   UNL     1      55.243  24.608   0.651  1.00  0.00     0.355 C 
ATOM     10  O   UNL     1      55.041  23.954  -0.361  1.00  0.00    -0.244 OA
BRANCH   9  11
ATOM     11  O   UNL     1      54.746  25.844   0.906  1.00  0.00    -0.457 OA
BRANCH  11  12
ATOM     12  C   UNL     1      55.110  26.819  -0.074  1.00  0.00     0.110 C 
BRANCH  12  13
ATOM     13  C   UNL     1      55.777  27.946   0.654  1.00  0.00    -0.054 C 
ATOM     14  C   UNL     1      56.105  29.122   0.102  1.00  0.00    -0.100 C 
ENDBRANCH  12  13
ENDBRANCH  11  12
ENDBRANCH   9  11
ENDBRANCH   3   9
BRANCH   6  15
ATOM     15  C   UNL     1      60.088  24.265   3.157  1.00  0.00     0.113 C 
ATOM     16  C   UNL     1      61.169  25.069   2.437  1.00  0.00    -0.027 C 
BRANCH  15  17
ATOM     17  O   UNL     1      60.542  24.018   4.509  1.00  0.00    -0.462 OA
BRANCH  17  18
ATOM     18  C   UNL     1      61.643  23.297   4.827  1.00  0.00     0.302 C 
ATOM     19  O   UNL     1      62.491  23.758   5.586  1.00  0.00    -0.253 OA
ATOM     20  C   UNL     1      61.774  21.924   4.241  1.00  0.00     0.034 C 
ENDBRANCH  17  18
ENDBRANCH  15  17
ENDBRANCH   6  15
TORSDOF 7
ENDMDL
MODEL 12
REMARK VINA RESULT:    -5.079     14.833     16.598
REMARK INTER + INTRA:          -7.389
REMARK INTER:                  -7.348
REMARK INTRA:                  -0.041
REMARK UNBOUND:                -0.231
REMARK SMILES C=CCOC(=O)C1=CS[C@H]2[C@@H]([C@@H](C)OC(C)=O)C(=O)N12
REMARK SMILES IDX 9 1 8 2 7 3 20 4 10 5 11 6 18 7 19 8 5 9 6 10 4 11 3 12 2 13
REMARK SMILES IDX 1 14 12 15 13 16 14 17 15 18 17 19 16 20
REMARK H PARENT
REMARK Flexibility Score: inf
ROOT
ATOM      1  S   UNL     1      58.990  27.845  -3.983  1.00  0.00    -0.105 SA
ATOM      2  C   UNL     1      60.649  27.378  -4.318  1.00  0.00     0.004 C 
ATOM      3  C   UNL     1      61.500  27.450  -3.289  1.00  0.00     0.137 C 
ATOM      4  N   UNL     1      60.971  27.945  -2.124  1.00  0.00    -0.291 N 
ATOM      5  C   UNL     1      59.622  28.497  -2.345  1.00  0.00     0.102 C 
ATOM      6  C   UNL     1      59.177  27.762  -1.056  1.00  0.00     0.106 C 
ATOM      7  C   UNL     1      60.547  27.072  -1.154  1.00  0.00     0.238 C 
ATOM      8  O   UNL     1      61.049  26.078  -0.683  1.00  0.00    -0.274 OA
ENDROOT
BRANCH   3   9
ATOM      9  C   UNL     1      62.929  27.037  -3.335  1.00  0.00     0.355 C 
ATOM     10  O   UNL     1      63.301  25.908  -3.620  1.00  0.00    -0.244 OA
BRANCH   9  11
ATOM     11  O   UNL     1      63.735  28.077  -3.006  1.00  0.00    -0.457 OA
BRANCH  11  12
ATOM     12  C   UNL     1      64.414  28.648  -4.126  1.00  0.00     0.110 C 
BRANCH  12  13
ATOM     13  C   UNL     1      64.155  30.124  -4.092  1.00  0.00    -0.054 C 
ATOM     14  C   UNL     1      63.019  30.688  -3.660  1.00  0.00    -0.100 C 
ENDBRANCH  12  13
ENDBRANCH  11  12
ENDBRANCH   9  11
ENDBRANCH   3   9
BRANCH   6  15
ATOM     15  C   UNL     1      57.967  26.837  -1.050  1.00  0.00     0.113 C 
ATOM     16  C   UNL     1      57.830  26.166   0.315  1.00  0.00    -0.027 C 
BRANCH  15  17
ATOM     17  O   UNL     1      56.802  27.670  -1.256  1.00  0.00    -0.462 OA
BRANCH  17  18
ATOM     18  C   UNL     1      55.968  28.078  -0.270  1.00  0.00     0.302 C 
ATOM     19  O   UNL     1      55.014  27.383   0.066  1.00  0.00    -0.253 OA
ATOM     20  C   UNL     1      56.265  29.385   0.401  1.00  0.00     0.034 C 
ENDBRANCH  17  18
ENDBRANCH  15  17
ENDBRANCH   6  15
TORSDOF 7
ENDMDL
MODEL 13
REMARK VINA RESULT:    -5.022      2.151      2.954
REMARK INTER + INTRA:          -7.308
REMARK INTER:                  -6.852
REMARK INTRA:                  -0.456
REMARK UNBOUND:                -0.231
REMARK SMILES C=CCOC(=O)C1=CS[C@H]2[C@@H]([C@@H](C)OC(C)=O)C(=O)N12
REMARK SMILES IDX 9 1 8 2 7 3 20 4 10 5 11 6 18 7 19 8 5 9 6 10 4 11 3 12 2 13
REMARK SMILES IDX 1 14 12 15 13 16 14 17 15 18 17 19 16 20
REMARK H PARENT
REMARK Flexibility Score: inf
ROOT
ATOM      1  S   UNL     1      67.186  22.344  13.623  1.00  0.00    -0.105 SA
ATOM      2  C   UNL     1      65.722  22.787  12.761  1.00  0.00     0.004 C 
ATOM      3  C   UNL     1      65.652  22.399  11.484  1.00  0.00     0.137 C 
ATOM      4  N   UNL     1      66.768  21.764  11.001  1.00  0.00    -0.291 N 
ATOM      5  C   UNL     1      67.886  21.854  11.957  1.00  0.00     0.102 C 
ATOM      6  C   UNL     1      68.148  20.349  11.699  1.00  0.00     0.106 C 
ATOM      7  C   UNL     1      66.798  20.392  10.966  1.00  0.00     0.238 C 
ATOM      8  O   UNL     1      65.987  19.573  10.601  1.00  0.00    -0.274 OA
ENDROOT
BRANCH   3   9
ATOM      9  C   UNL     1      64.478  22.607  10.593  1.00  0.00     0.355 C 
ATOM     10  O   UNL     1      63.327  22.353  10.916  1.00  0.00    -0.244 OA
BRANCH   9  11
ATOM     11  O   UNL     1      64.873  23.100   9.393  1.00  0.00    -0.457 OA
BRANCH  11  12
ATOM     12  C   UNL     1      64.095  22.621   8.295  1.00  0.00     0.110 C 
BRANCH  12  13
ATOM     13  C   UNL     1      64.736  21.352   7.821  1.00  0.00    -0.054 C 
ATOM     14  C   UNL     1      64.101  20.180   7.687  1.00  0.00    -0.100 C 
ENDBRANCH  12  13
ENDBRANCH  11  12
ENDBRANCH   9  11
ENDBRANCH   3   9
BRANCH   6  15
ATOM     15  C   UNL     1      68.248  19.354  12.848  1.00  0.00     0.113 C 
ATOM     16  C   UNL     1      68.400  17.937  12.300  1.00  0.00    -0.027 C 
BRANCH  15  17
ATOM     17  O   UNL     1      69.452  19.681  13.582  1.00  0.00    -0.462 OA
BRANCH  17  18
ATOM     18  C   UNL     1      69.612  19.491  14.913  1.00  0.00     0.302 C 
ATOM     19  O   UNL     1      69.079  20.247  15.719  1.00  0.00    -0.253 OA
ATOM     20  C   UNL     1      70.438  18.321  15.358  1.00  0.00     0.034 C 
ENDBRANCH  17  18
ENDBRANCH  15  17
ENDBRANCH   6  15
TORSDOF 7
ENDMDL
MODEL 14
REMARK VINA RESULT:    -4.925     13.148     15.471
REMARK INTER + INTRA:          -7.171
REMARK INTER:                  -6.963
REMARK INTRA:                  -0.207
REMARK UNBOUND:                -0.231
REMARK SMILES C=CCOC(=O)C1=CS[C@H]2[C@@H]([C@@H](C)OC(C)=O)C(=O)N12
REMARK SMILES IDX 9 1 8 2 7 3 20 4 10 5 11 6 18 7 19 8 5 9 6 10 4 11 3 12 2 13
REMARK SMILES IDX 1 14 12 15 13 16 14 17 15 18 17 19 16 20
REMARK H PARENT
REMARK Flexibility Score: inf
ROOT
ATOM      1  S   UNL     1      61.401  25.218  -0.015  1.00  0.00    -0.105 SA
ATOM      2  C   UNL     1      62.636  25.874  -1.077  1.00  0.00     0.004 C 
ATOM      3  C   UNL     1      62.240  26.195  -2.313  1.00  0.00     0.137 C 
ATOM      4  N   UNL     1      60.931  25.903  -2.604  1.00  0.00    -0.291 N 
ATOM      5  C   UNL     1      60.319  25.089  -1.538  1.00  0.00     0.102 C 
ATOM      6  C   UNL     1      59.082  26.018  -1.624  1.00  0.00     0.106 C 
ATOM      7  C   UNL     1      59.985  26.893  -2.508  1.00  0.00     0.238 C 
ATOM      8  O   UNL     1      59.972  28.041  -2.886  1.00  0.00    -0.274 OA
ENDROOT
BRANCH   3   9
ATOM      9  C   UNL     1      63.102  26.827  -3.347  1.00  0.00     0.355 C 
ATOM     10  O   UNL     1      63.406  26.288  -4.401  1.00  0.00    -0.244 OA
BRANCH   9  11
ATOM     11  O   UNL     1      63.500  28.060  -2.945  1.00  0.00    -0.457 OA
BRANCH  11  12
ATOM     12  C   UNL     1      64.259  28.764  -3.930  1.00  0.00     0.110 C 
BRANCH  12  13
ATOM     13  C   UNL     1      63.770  30.180  -3.933  1.00  0.00    -0.054 C 
ATOM     14  C   UNL     1      62.732  30.627  -4.653  1.00  0.00    -0.100 C 
ENDBRANCH  12  13
ENDBRANCH  11  12
ENDBRANCH   9  11
ENDBRANCH   3   9
BRANCH   6  15
ATOM     15  C   UNL     1      58.511  26.695  -0.384  1.00  0.00     0.113 C 
ATOM     16  C   UNL     1      57.492  27.757  -0.790  1.00  0.00    -0.027 C 
BRANCH  15  17
ATOM     17  O   UNL     1      57.815  25.673   0.368  1.00  0.00    -0.462 OA
BRANCH  17  18
ATOM     18  C   UNL     1      57.541  25.750   1.693  1.00  0.00     0.302 C 
ATOM     19  O   UNL     1      56.430  26.096   2.079  1.00  0.00    -0.253 OA
ATOM     20  C   UNL     1      58.629  25.378   2.655  1.00  0.00     0.034 C 
ENDBRANCH  17  18
ENDBRANCH  15  17
ENDBRANCH   6  15
TORSDOF 7
ENDMDL
MODEL 15
REMARK VINA RESULT:    -4.867     14.892     16.354
REMARK INTER + INTRA:          -7.090
REMARK INTER:                  -6.606
REMARK INTRA:                  -0.483
REMARK UNBOUND:                -0.231
REMARK SMILES C=CCOC(=O)C1=CS[C@H]2[C@@H]([C@@H](C)OC(C)=O)C(=O)N12
REMARK SMILES IDX 9 1 8 2 7 3 20 4 10 5 11 6 18 7 19 8 5 9 6 10 4 11 3 12 2 13
REMARK SMILES IDX 1 14 12 15 13 16 14 17 15 18 17 19 16 20
REMARK H PARENT
REMARK Flexibility Score: inf
ROOT
ATOM      1  S   UNL     1      61.865  26.615  -1.480  1.00  0.00    -0.105 SA
ATOM      2  C   UNL     1      60.431  25.627  -1.259  1.00  0.00     0.004 C 
ATOM      3  C   UNL     1      59.280  26.289  -1.098  1.00  0.00     0.137 C 
ATOM      4  N   UNL     1      59.389  27.656  -1.061  1.00  0.00    -0.291 N 
ATOM      5  C   UNL     1      60.801  28.074  -0.986  1.00  0.00     0.102 C 
ATOM      6  C   UNL     1      60.480  29.133  -2.070  1.00  0.00     0.106 C 
ATOM      7  C   UNL     1      59.147  28.380  -2.202  1.00  0.00     0.238 C 
ATOM      8  O   UNL     1      58.267  28.320  -3.028  1.00  0.00    -0.274 OA
ENDROOT
BRANCH   3   9
ATOM      9  C   UNL     1      57.942  25.651  -0.965  1.00  0.00     0.355 C 
ATOM     10  O   UNL     1      57.595  24.662  -1.593  1.00  0.00    -0.244 OA
BRANCH   9  11
ATOM     11  O   UNL     1      57.180  26.327  -0.069  1.00  0.00    -0.457 OA
BRANCH  11  12
ATOM     12  C   UNL     1      55.962  26.831  -0.620  1.00  0.00     0.110 C 
BRANCH  12  13
ATOM     13  C   UNL     1      55.612  28.071   0.146  1.00  0.00    -0.054 C 
ATOM     14  C   UNL     1      56.463  29.072   0.406  1.00  0.00    -0.100 C 
ENDBRANCH  12  13
ENDBRANCH  11  12
ENDBRANCH   9  11
ENDBRANCH   3   9
BRANCH   6  15
ATOM     15  C   UNL     1      61.310  29.239  -3.343  1.00  0.00     0.113 C 
ATOM     16  C   UNL     1      60.747  30.337  -4.244  1.00  0.00    -0.027 C 
BRANCH  15  17
ATOM     17  O   UNL     1      62.644  29.632  -2.942  1.00  0.00    -0.462 OA
BRANCH  17  18
ATOM     18  C   UNL     1      63.726  29.613  -3.758  1.00  0.00     0.302 C 
ATOM     19  O   UNL     1      64.304  30.656  -4.048  1.00  0.00    -0.253 OA
ATOM     20  C   UNL     1      64.195  28.284  -4.267  1.00  0.00     0.034 C 
ENDBRANCH  17  18
ENDBRANCH  15  17
ENDBRANCH   6  15
TORSDOF 7
ENDMDL
MODEL 16
REMARK VINA RESULT:    -4.820      5.152      9.000
REMARK INTER + INTRA:          -7.024
REMARK INTER:                  -6.827
REMARK INTRA:                  -0.197
REMARK UNBOUND:                -0.231
REMARK SMILES C=CCOC(=O)C1=CS[C@H]2[C@@H]([C@@H](C)OC(C)=O)C(=O)N12
REMARK SMILES IDX 9 1 8 2 7 3 20 4 10 5 11 6 18 7 19 8 5 9 6 10 4 11 3 12 2 13
REMARK SMILES IDX 1 14 12 15 13 16 14 17 15 18 17 19 16 20
REMARK H PARENT
REMARK Flexibility Score: inf
ROOT
ATOM      1  S   UNL     1      66.035  25.767   4.898  1.00  0.00    -0.105 SA
ATOM      2  C   UNL     1      64.988  24.983   6.069  1.00  0.00     0.004 C 
ATOM      3  C   UNL     1      64.106  24.107   5.576  1.00  0.00     0.137 C 
ATOM      4  N   UNL     1      64.096  23.991   4.208  1.00  0.00    -0.291 N 
ATOM      5  C   UNL     1      64.922  25.039   3.581  1.00  0.00     0.102 C 
ATOM      6  C   UNL     1      65.513  23.937   2.665  1.00  0.00     0.106 C 
ATOM      7  C   UNL     1      64.794  22.968   3.616  1.00  0.00     0.238 C 
ATOM      8  O   UNL     1      64.871  21.788   3.868  1.00  0.00    -0.274 OA
ENDROOT
BRANCH   3   9
ATOM      9  C   UNL     1      63.176  23.283   6.393  1.00  0.00     0.355 C 
ATOM     10  O   UNL     1      62.002  23.099   6.108  1.00  0.00    -0.244 OA
BRANCH   9  11
ATOM     11  O   UNL     1      63.813  22.787   7.483  1.00  0.00    -0.457 OA
BRANCH  11  12
ATOM     12  C   UNL     1      62.934  22.170   8.427  1.00  0.00     0.110 C 
BRANCH  12  13
ATOM     13  C   UNL     1      63.669  22.099   9.731  1.00  0.00    -0.054 C 
ATOM     14  C   UNL     1      64.784  21.387   9.939  1.00  0.00    -0.100 C 
ENDBRANCH  12  13
ENDBRANCH  11  12
ENDBRANCH   9  11
ENDBRANCH   3   9
BRANCH   6  15
ATOM     15  C   UNL     1      67.018  23.742   2.533  1.00  0.00     0.113 C 
ATOM     16  C   UNL     1      67.312  22.567   1.603  1.00  0.00    -0.027 C 
BRANCH  15  17
ATOM     17  O   UNL     1      67.544  24.941   1.917  1.00  0.00    -0.462 OA
BRANCH  17  18
ATOM     18  C   UNL     1      68.856  25.157   1.659  1.00  0.00     0.302 C 
ATOM     19  O   UNL     1      69.238  25.369   0.512  1.00  0.00    -0.253 OA
ATOM     20  C   UNL     1      69.808  25.149   2.817  1.00  0.00     0.034 C 
ENDBRANCH  17  18
ENDBRANCH  15  17
ENDBRANCH   6  15
TORSDOF 7
ENDMDL
MODEL 17
REMARK VINA RESULT:    -4.817      2.510      7.241
REMARK INTER + INTRA:          -7.020
REMARK INTER:                  -6.875
REMARK INTRA:                  -0.144
REMARK UNBOUND:                -0.231
REMARK SMILES C=CCOC(=O)C1=CS[C@H]2[C@@H]([C@@H](C)OC(C)=O)C(=O)N12
REMARK SMILES IDX 9 1 8 2 7 3 20 4 10 5 11 6 18 7 19 8 5 9 6 10 4 11 3 12 2 13
REMARK SMILES IDX 1 14 12 15 13 16 14 17 15 18 17 19 16 20
REMARK H PARENT
REMARK Flexibility Score: inf
ROOT
ATOM      1  S   UNL     1      66.423  18.981  10.930  1.00  0.00    -0.105 SA
ATOM      2  C   UNL     1      67.258  17.981  12.106  1.00  0.00     0.004 C 
ATOM      3  C   UNL     1      68.290  18.551  12.737  1.00  0.00     0.137 C 
ATOM      4  N   UNL     1      68.597  19.825  12.328  1.00  0.00    -0.291 N 
ATOM      5  C   UNL     1      67.843  20.189  11.115  1.00  0.00     0.102 C 
ATOM      6  C   UNL     1      67.545  21.554  11.784  1.00  0.00     0.106 C 
ATOM      7  C   UNL     1      68.122  20.894  13.047  1.00  0.00     0.238 C 
ATOM      8  O   UNL     1      68.085  21.120  14.233  1.00  0.00    -0.274 OA
ENDROOT
BRANCH   3   9
ATOM      9  C   UNL     1      69.089  17.911  13.817  1.00  0.00     0.355 C 
ATOM     10  O   UNL     1      68.652  17.050  14.566  1.00  0.00    -0.244 OA
BRANCH   9  11
ATOM     11  O   UNL     1      70.344  18.424  13.848  1.00  0.00    -0.457 OA
BRANCH  11  12
ATOM     12  C   UNL     1      71.149  17.900  14.905  1.00  0.00     0.110 C 
BRANCH  12  13
ATOM     13  C   UNL     1      71.193  18.940  15.983  1.00  0.00    -0.054 C 
ATOM     14  C   UNL     1      72.307  19.343  16.608  1.00  0.00    -0.100 C 
ENDBRANCH  12  13
ENDBRANCH  11  12
ENDBRANCH   9  11
ENDBRANCH   3   9
BRANCH   6  15
ATOM     15  C   UNL     1      66.122  22.084  11.904  1.00  0.00     0.113 C 
ATOM     16  C   UNL     1      66.120  23.408  12.665  1.00  0.00    -0.027 C 
BRANCH  15  17
ATOM     17  O   UNL     1      65.656  22.341  10.559  1.00  0.00    -0.462 OA
BRANCH  17  18
ATOM     18  C   UNL     1      64.382  22.151  10.140  1.00  0.00     0.302 C 
ATOM     19  O   UNL     1      63.454  22.745  10.680  1.00  0.00    -0.253 OA
ATOM     20  C   UNL     1      64.155  21.215   8.991  1.00  0.00     0.034 C 
ENDBRANCH  17  18
ENDBRANCH  15  17
ENDBRANCH   6  15
TORSDOF 7
ENDMDL
MODEL 18
REMARK VINA RESULT:    -4.799     12.345     14.993
REMARK INTER + INTRA:          -6.993
REMARK INTER:                  -6.740
REMARK INTRA:                  -0.254
REMARK UNBOUND:                -0.231
REMARK SMILES C=CCOC(=O)C1=CS[C@H]2[C@@H]([C@@H](C)OC(C)=O)C(=O)N12
REMARK SMILES IDX 9 1 8 2 7 3 20 4 10 5 11 6 18 7 19 8 5 9 6 10 4 11 3 12 2 13
REMARK SMILES IDX 1 14 12 15 13 16 14 17 15 18 17 19 16 20
REMARK H PARENT
REMARK Flexibility Score: inf
ROOT
ATOM      1  S   UNL     1      60.397  25.545   0.627  1.00  0.00    -0.105 SA
ATOM      2  C   UNL     1      61.193  26.513  -0.603  1.00  0.00     0.004 C 
ATOM      3  C   UNL     1      60.434  26.886  -1.639  1.00  0.00     0.137 C 
ATOM      4  N   UNL     1      59.150  26.402  -1.631  1.00  0.00    -0.291 N 
ATOM      5  C   UNL     1      58.971  25.388  -0.577  1.00  0.00     0.102 C 
ATOM      6  C   UNL     1      57.639  26.091  -0.213  1.00  0.00     0.106 C 
ATOM      7  C   UNL     1      58.136  27.197  -1.157  1.00  0.00     0.238 C 
ATOM      8  O   UNL     1      57.860  28.358  -1.348  1.00  0.00    -0.274 OA
ENDROOT
BRANCH   3   9
ATOM      9  C   UNL     1      60.886  27.764  -2.753  1.00  0.00     0.355 C 
ATOM     10  O   UNL     1      60.291  27.874  -3.815  1.00  0.00    -0.244 OA
BRANCH   9  11
ATOM     11  O   UNL     1      62.037  28.399  -2.421  1.00  0.00    -0.457 OA
BRANCH  11  12
ATOM     12  C   UNL     1      61.906  29.820  -2.353  1.00  0.00     0.110 C 
BRANCH  12  13
ATOM     13  C   UNL     1      62.901  30.400  -3.312  1.00  0.00    -0.054 C 
ATOM     14  C   UNL     1      63.763  29.681  -4.044  1.00  0.00    -0.100 C 
ENDBRANCH  12  13
ENDBRANCH  11  12
ENDBRANCH   9  11
ENDBRANCH   3   9
BRANCH   6  15
ATOM     15  C   UNL     1      57.338  26.524   1.216  1.00  0.00     0.113 C 
ATOM     16  C   UNL     1      56.048  27.341   1.252  1.00  0.00    -0.027 C 
BRANCH  15  17
ATOM     17  O   UNL     1      57.123  25.317   1.984  1.00  0.00    -0.462 OA
BRANCH  17  18
ATOM     18  C   UNL     1      57.689  25.064   3.188  1.00  0.00     0.302 C 
ATOM     19  O   UNL     1      58.395  25.907   3.733  1.00  0.00    -0.253 OA
ATOM     20  C   UNL     1      57.405  23.740   3.831  1.00  0.00     0.034 C 
ENDBRANCH  17  18
ENDBRANCH  15  17
ENDBRANCH   6  15
TORSDOF 7
ENDMDL
MODEL 19
REMARK VINA RESULT:    -4.782     14.416     16.682
REMARK INTER + INTRA:          -6.969
REMARK INTER:                  -6.683
REMARK INTRA:                  -0.286
REMARK UNBOUND:                -0.231
REMARK SMILES C=CCOC(=O)C1=CS[C@H]2[C@@H]([C@@H](C)OC(C)=O)C(=O)N12
REMARK SMILES IDX 9 1 8 2 7 3 20 4 10 5 11 6 18 7 19 8 5 9 6 10 4 11 3 12 2 13
REMARK SMILES IDX 1 14 12 15 13 16 14 17 15 18 17 19 16 20
REMARK H PARENT
REMARK Flexibility Score: inf
ROOT
ATOM      1  S   UNL     1      56.879  28.812  -0.099  1.00  0.00    -0.105 SA
ATOM      2  C   UNL     1      55.794  27.640   0.630  1.00  0.00     0.004 C 
ATOM      3  C   UNL     1      55.306  26.702  -0.189  1.00  0.00     0.137 C 
ATOM      4  N   UNL     1      55.669  26.827  -1.506  1.00  0.00    -0.291 N 
ATOM      5  C   UNL     1      56.345  28.113  -1.752  1.00  0.00     0.102 C 
ATOM      6  C   UNL     1      57.398  27.332  -2.578  1.00  0.00     0.106 C 
ATOM      7  C   UNL     1      56.720  26.086  -1.986  1.00  0.00     0.238 C 
ATOM      8  O   UNL     1      57.016  24.921  -1.856  1.00  0.00    -0.274 OA
ENDROOT
BRANCH   3   9
ATOM      9  C   UNL     1      54.429  25.576   0.232  1.00  0.00     0.355 C 
ATOM     10  O   UNL     1      53.284  25.422  -0.165  1.00  0.00    -0.244 OA
BRANCH   9  11
ATOM     11  O   UNL     1      55.077  24.772   1.112  1.00  0.00    -0.457 OA
BRANCH  11  12
ATOM     12  C   UNL     1      54.899  23.379   0.850  1.00  0.00     0.110 C 
BRANCH  12  13
ATOM     13  C   UNL     1      55.644  22.632   1.914  1.00  0.00    -0.054 C 
ATOM     14  C   UNL     1      56.521  23.187   2.762  1.00  0.00    -0.100 C 
ENDBRANCH  12  13
ENDBRANCH  11  12
ENDBRANCH   9  11
ENDBRANCH   3   9
BRANCH   6  15
ATOM     15  C   UNL     1      58.888  27.472  -2.297  1.00  0.00     0.113 C 
ATOM     16  C   UNL     1      59.670  26.431  -3.095  1.00  0.00    -0.027 C 
BRANCH  15  17
ATOM     17  O   UNL     1      59.282  28.783  -2.768  1.00  0.00    -0.462 OA
BRANCH  17  18
ATOM     18  C   UNL     1      60.429  29.411  -2.415  1.00  0.00     0.302 C 
ATOM     19  O   UNL     1      61.172  29.879  -3.272  1.00  0.00    -0.253 OA
ATOM     20  C   UNL     1      60.739  29.531  -0.953  1.00  0.00     0.034 C 
ENDBRANCH  17  18
ENDBRANCH  15  17
ENDBRANCH   6  15
TORSDOF 7
ENDMDL
MODEL 20
REMARK VINA RESULT:    -4.724      2.528      7.279
REMARK INTER + INTRA:          -6.888
REMARK INTER:                  -6.657
REMARK INTRA:                  -0.231
REMARK UNBOUND:                -0.231
REMARK SMILES C=CCOC(=O)C1=CS[C@H]2[C@@H]([C@@H](C)OC(C)=O)C(=O)N12
REMARK SMILES IDX 9 1 8 2 7 3 20 4 10 5 11 6 18 7 19 8 5 9 6 10 4 11 3 12 2 13
REMARK SMILES IDX 1 14 12 15 13 16 14 17 15 18 17 19 16 20
REMARK H PARENT
REMARK Flexibility Score: inf
ROOT
ATOM      1  S   UNL     1      64.047  22.765   9.046  1.00  0.00    -0.105 SA
ATOM      2  C   UNL     1      65.222  22.352  10.284  1.00  0.00     0.004 C 
ATOM      3  C   UNL     1      65.673  21.093  10.270  1.00  0.00     0.137 C 
ATOM      4  N   UNL     1      65.103  20.276   9.326  1.00  0.00    -0.291 N 
ATOM      5  C   UNL     1      63.949  20.930   8.684  1.00  0.00     0.102 C 
ATOM      6  C   UNL     1      64.503  20.433   7.325  1.00  0.00     0.106 C 
ATOM      7  C   UNL     1      65.755  20.067   8.136  1.00  0.00     0.238 C 
ATOM      8  O   UNL     1      66.909  19.816   7.878  1.00  0.00    -0.274 OA
ENDROOT
BRANCH   3   9
ATOM      9  C   UNL     1      66.718  20.553  11.180  1.00  0.00     0.355 C 
ATOM     10  O   UNL     1      66.795  19.377  11.505  1.00  0.00    -0.244 OA
BRANCH   9  11
ATOM     11  O   UNL     1      67.547  21.544  11.594  1.00  0.00    -0.457 OA
BRANCH  11  12
ATOM     12  C   UNL     1      67.645  21.649  13.016  1.00  0.00     0.110 C 
BRANCH  12  13
ATOM     13  C   UNL     1      68.180  23.015  13.320  1.00  0.00    -0.054 C 
ATOM     14  C   UNL     1      68.378  23.977  12.409  1.00  0.00    -0.100 C 
ENDBRANCH  12  13
ENDBRANCH  11  12
ENDBRANCH   9  11
ENDBRANCH   3   9
BRANCH   6  15
ATOM     15  C   UNL     1      64.723  21.391   6.161  1.00  0.00     0.113 C 
ATOM     16  C   UNL     1      65.394  20.658   5.001  1.00  0.00    -0.027 C 
BRANCH  15  17
ATOM     17  O   UNL     1      63.414  21.822   5.719  1.00  0.00    -0.462 OA
BRANCH  17  18
ATOM     18  C   UNL     1      63.047  23.116   5.559  1.00  0.00     0.302 C 
ATOM     19  O   UNL     1      61.982  23.522   6.014  1.00  0.00    -0.253 OA
ATOM     20  C   UNL     1      63.990  24.026   4.833  1.00  0.00     0.034 C 
ENDBRANCH  17  18
ENDBRANCH  15  17
ENDBRANCH   6  15
TORSDOF 7
ENDMDL
