MODEL 1
REMARK VINA RESULT:    -5.055      0.000      0.000
REMARK INTER + INTRA:          -7.461
REMARK INTER:                  -7.134
REMARK INTRA:                  -0.326
REMARK UNBOUND:                -0.337
REMARK SMILES C=CCOC(=O)C1=CS[C@H]2[C@@H]([C@@H](C)OC(C)=O)C(=O)N12
REMARK SMILES IDX 9 1 8 2 7 3 20 4 10 5 11 6 18 7 19 8 5 9 6 10 4 11 3 12 2 13
REMARK SMILES IDX 1 14 12 15 13 16 14 17 15 18 17 19 16 20
REMARK H PARENT
REMARK Flexibility Score: inf
ROOT
ATOM      1  S   UNL     1      55.927  27.801  -2.390  1.00  0.00    -0.105 SA
ATOM      2  C   UNL     1      57.431  28.072  -3.255  1.00  0.00     0.004 C 
ATOM      3  C   UNL     1      58.521  28.242  -2.500  1.00  0.00     0.137 C 
ATOM      4  N   UNL     1      58.302  28.249  -1.145  1.00  0.00    -0.291 N 
ATOM      5  C   UNL     1      56.860  28.287  -0.841  1.00  0.00     0.102 C 
ATOM      6  C   UNL     1      57.118  27.187   0.220  1.00  0.00     0.106 C 
ATOM      7  C   UNL     1      58.510  27.098  -0.426  1.00  0.00     0.238 C 
ATOM      8  O   UNL     1      59.410  26.291  -0.431  1.00  0.00    -0.274 OA
ENDROOT
BRANCH   3   9
ATOM      9  C   UNL     1      59.903  28.415  -3.025  1.00  0.00     0.355 C 
ATOM     10  O   UNL     1      60.563  27.509  -3.511  1.00  0.00    -0.244 OA
BRANCH   9  11
ATOM     11  O   UNL     1      60.311  29.700  -2.875  1.00  0.00    -0.457 OA
BRANCH  11  12
ATOM     12  C   UNL     1      61.623  29.821  -2.321  1.00  0.00     0.110 C 
BRANCH  12  13
ATOM     13  C   UNL     1      62.469  30.517  -3.342  1.00  0.00    -0.054 C 
ATOM     14  C   UNL     1      63.393  29.917  -4.104  1.00  0.00    -0.100 C 
ENDBRANCH  12  13
ENDBRANCH  11  12
ENDBRANCH   9  11
ENDBRANCH   3   9
BRANCH   6  15
ATOM     15  C   UNL     1      56.310  25.896   0.234  1.00  0.00     0.113 C 
ATOM     16  C   UNL     1      56.741  25.024   1.412  1.00  0.00    -0.027 C 
BRANCH  15  17
ATOM     17  O   UNL     1      54.927  26.269   0.438  1.00  0.00    -0.462 OA
BRANCH  17  18
ATOM     18  C   UNL     1      53.867  25.505   0.083  1.00  0.00     0.302 C 
ATOM     19  O   UNL     1      52.850  25.493   0.769  1.00  0.00    -0.253 OA
ATOM     20  C   UNL     1      53.976  24.701  -1.178  1.00  0.00     0.034 C 
ENDBRANCH  17  18
ENDBRANCH  15  17
ENDBRANCH   6  15
TORSDOF 7
ENDMDL
MODEL 2
REMARK VINA RESULT:    -4.956      2.519      3.626
REMARK INTER + INTRA:          -7.321
REMARK INTER:                  -7.093
REMARK INTRA:                  -0.228
REMARK UNBOUND:                -0.337
REMARK SMILES C=CCOC(=O)C1=CS[C@H]2[C@@H]([C@@H](C)OC(C)=O)C(=O)N12
REMARK SMILES IDX 9 1 8 2 7 3 20 4 10 5 11 6 18 7 19 8 5 9 6 10 4 11 3 12 2 13
REMARK SMILES IDX 1 14 12 15 13 16 14 17 15 18 17 19 16 20
REMARK H PARENT
REMARK Flexibility Score: inf
ROOT
ATOM      1  S   UNL     1      60.890  25.386  -0.231  1.00  0.00    -0.105 SA
ATOM      2  C   UNL     1      62.162  25.959  -1.298  1.00  0.00     0.004 C 
ATOM      3  C   UNL     1      61.775  26.355  -2.515  1.00  0.00     0.137 C 
ATOM      4  N   UNL     1      60.439  26.196  -2.787  1.00  0.00    -0.291 N 
ATOM      5  C   UNL     1      59.773  25.408  -1.734  1.00  0.00     0.102 C 
ATOM      6  C   UNL     1      58.627  26.449  -1.766  1.00  0.00     0.106 C 
ATOM      7  C   UNL     1      59.591  27.265  -2.641  1.00  0.00     0.238 C 
ATOM      8  O   UNL     1      59.679  28.421  -2.983  1.00  0.00    -0.274 OA
ENDROOT
BRANCH   3   9
ATOM      9  C   UNL     1      62.674  26.938  -3.547  1.00  0.00     0.355 C 
ATOM     10  O   UNL     1      62.875  26.429  -4.639  1.00  0.00    -0.244 OA
BRANCH   9  11
ATOM     11  O   UNL     1      63.232  28.089  -3.096  1.00  0.00    -0.457 OA
BRANCH  11  12
ATOM     12  C   UNL     1      64.016  28.768  -4.079  1.00  0.00     0.110 C 
BRANCH  12  13
ATOM     13  C   UNL     1      63.539  30.188  -4.119  1.00  0.00    -0.054 C 
ATOM     14  C   UNL     1      62.487  30.658  -3.437  1.00  0.00    -0.100 C 
ENDBRANCH  12  13
ENDBRANCH  11  12
ENDBRANCH   9  11
ENDBRANCH   3   9
BRANCH   6  15
ATOM     15  C   UNL     1      58.144  27.135  -0.493  1.00  0.00     0.113 C 
ATOM     16  C   UNL     1      57.222  28.299  -0.846  1.00  0.00    -0.027 C 
BRANCH  15  17
ATOM     17  O   UNL     1      57.369  26.158   0.241  1.00  0.00    -0.462 OA
BRANCH  17  18
ATOM     18  C   UNL     1      57.191  26.174   1.583  1.00  0.00     0.302 C 
ATOM     19  O   UNL     1      56.248  26.784   2.078  1.00  0.00    -0.253 OA
ATOM     20  C   UNL     1      58.165  25.410   2.428  1.00  0.00     0.034 C 
ENDBRANCH  17  18
ENDBRANCH  15  17
ENDBRANCH   6  15
TORSDOF 7
ENDMDL
MODEL 3
REMARK VINA RESULT:    -4.938      1.762      2.528
REMARK INTER + INTRA:          -7.297
REMARK INTER:                  -6.975
REMARK INTRA:                  -0.322
REMARK UNBOUND:                -0.337
REMARK SMILES C=CCOC(=O)C1=CS[C@H]2[C@@H]([C@@H](C)OC(C)=O)C(=O)N12
REMARK SMILES IDX 9 1 8 2 7 3 20 4 10 5 11 6 18 7 19 8 5 9 6 10 4 11 3 12 2 13
REMARK SMILES IDX 1 14 12 15 13 16 14 17 15 18 17 19 16 20
REMARK H PARENT
REMARK Flexibility Score: inf
ROOT
ATOM      1  S   UNL     1      58.490  25.363  -1.999  1.00  0.00    -0.105 SA
ATOM      2  C   UNL     1      60.189  25.728  -2.247  1.00  0.00     0.004 C 
ATOM      3  C   UNL     1      60.479  26.996  -2.554  1.00  0.00     0.137 C 
ATOM      4  N   UNL     1      59.398  27.828  -2.699  1.00  0.00    -0.291 N 
ATOM      5  C   UNL     1      58.137  27.064  -2.698  1.00  0.00     0.102 C 
ATOM      6  C   UNL     1      57.561  28.134  -1.737  1.00  0.00     0.106 C 
ATOM      7  C   UNL     1      59.015  28.623  -1.647  1.00  0.00     0.238 C 
ATOM      8  O   UNL     1      59.645  29.324  -0.891  1.00  0.00    -0.274 OA
ENDROOT
BRANCH   3   9
ATOM      9  C   UNL     1      61.854  27.536  -2.737  1.00  0.00     0.355 C 
ATOM     10  O   UNL     1      62.660  27.666  -1.827  1.00  0.00    -0.244 OA
BRANCH   9  11
ATOM     11  O   UNL     1      62.067  27.864  -4.035  1.00  0.00    -0.457 OA
BRANCH  11  12
ATOM     12  C   UNL     1      63.318  28.518  -4.261  1.00  0.00     0.110 C 
BRANCH  12  13
ATOM     13  C   UNL     1      63.012  29.935  -4.638  1.00  0.00    -0.054 C 
ATOM     14  C   UNL     1      62.989  30.964  -3.780  1.00  0.00    -0.100 C 
ENDBRANCH  12  13
ENDBRANCH  11  12
ENDBRANCH   9  11
ENDBRANCH   3   9
BRANCH   6  15
ATOM     15  C   UNL     1      56.909  27.743  -0.417  1.00  0.00     0.113 C 
ATOM     16  C   UNL     1      56.510  28.997   0.359  1.00  0.00    -0.027 C 
BRANCH  15  17
ATOM     17  O   UNL     1      55.701  27.017  -0.744  1.00  0.00    -0.462 OA
BRANCH  17  18
ATOM     18  C   UNL     1      55.068  26.166   0.098  1.00  0.00     0.302 C 
ATOM     19  O   UNL     1      53.858  26.256   0.280  1.00  0.00    -0.253 OA
ATOM     20  C   UNL     1      55.889  25.109   0.773  1.00  0.00     0.034 C 
ENDBRANCH  17  18
ENDBRANCH  15  17
ENDBRANCH   6  15
TORSDOF 7
ENDMDL
MODEL 4
REMARK VINA RESULT:    -4.920      2.164      2.770
REMARK INTER + INTRA:          -7.270
REMARK INTER:                  -7.245
REMARK INTRA:                  -0.025
REMARK UNBOUND:                -0.337
REMARK SMILES C=CCOC(=O)C1=CS[C@H]2[C@@H]([C@@H](C)OC(C)=O)C(=O)N12
REMARK SMILES IDX 9 1 8 2 7 3 20 4 10 5 11 6 18 7 19 8 5 9 6 10 4 11 3 12 2 13
REMARK SMILES IDX 1 14 12 15 13 16 14 17 15 18 17 19 16 20
REMARK H PARENT
REMARK Flexibility Score: inf
ROOT
ATOM      1  S   UNL     1      58.445  27.476  -3.955  1.00  0.00    -0.105 SA
ATOM      2  C   UNL     1      60.103  27.187  -4.454  1.00  0.00     0.004 C 
ATOM      3  C   UNL     1      61.044  27.427  -3.536  1.00  0.00     0.137 C 
ATOM      4  N   UNL     1      60.587  27.933  -2.345  1.00  0.00    -0.291 N 
ATOM      5  C   UNL     1      59.164  28.306  -2.438  1.00  0.00     0.102 C 
ATOM      6  C   UNL     1      58.956  27.611  -1.069  1.00  0.00     0.106 C 
ATOM      7  C   UNL     1      60.383  27.082  -1.288  1.00  0.00     0.238 C 
ATOM      8  O   UNL     1      61.052  26.188  -0.826  1.00  0.00    -0.274 OA
ENDROOT
BRANCH   3   9
ATOM      9  C   UNL     1      62.500  27.183  -3.724  1.00  0.00     0.355 C 
ATOM     10  O   UNL     1      62.958  26.196  -4.280  1.00  0.00    -0.244 OA
BRANCH   9  11
ATOM     11  O   UNL     1      63.225  28.195  -3.185  1.00  0.00    -0.457 OA
BRANCH  11  12
ATOM     12  C   UNL     1      63.963  28.946  -4.151  1.00  0.00     0.110 C 
BRANCH  12  13
ATOM     13  C   UNL     1      63.525  30.374  -4.026  1.00  0.00    -0.054 C 
ATOM     14  C   UNL     1      62.311  30.831  -4.359  1.00  0.00    -0.100 C 
ENDBRANCH  12  13
ENDBRANCH  11  12
ENDBRANCH   9  11
ENDBRANCH   3   9
BRANCH   6  15
ATOM     15  C   UNL     1      57.879  26.552  -0.874  1.00  0.00     0.113 C 
ATOM     16  C   UNL     1      57.996  25.939   0.519  1.00  0.00    -0.027 C 
BRANCH  15  17
ATOM     17  O   UNL     1      56.604  27.232  -0.957  1.00  0.00    -0.462 OA
BRANCH  17  18
ATOM     18  C   UNL     1      55.969  27.800   0.097  1.00  0.00     0.302 C 
ATOM     19  O   UNL     1      55.158  27.156   0.755  1.00  0.00    -0.253 OA
ATOM     20  C   UNL     1      56.307  29.220   0.435  1.00  0.00     0.034 C 
ENDBRANCH  17  18
ENDBRANCH  15  17
ENDBRANCH   6  15
TORSDOF 7
ENDMDL
MODEL 5
REMARK VINA RESULT:    -4.911      2.399      7.032
REMARK INTER + INTRA:          -7.259
REMARK INTER:                  -6.742
REMARK INTRA:                  -0.517
REMARK UNBOUND:                -0.337
REMARK SMILES C=CCOC(=O)C1=CS[C@H]2[C@@H]([C@@H](C)OC(C)=O)C(=O)N12
REMARK SMILES IDX 9 1 8 2 7 3 20 4 10 5 11 6 18 7 19 8 5 9 6 10 4 11 3 12 2 13
REMARK SMILES IDX 1 14 12 15 13 16 14 17 15 18 17 19 16 20
REMARK H PARENT
REMARK Flexibility Score: inf
ROOT
ATOM      1  S   UNL     1      61.684  26.885  -1.540  1.00  0.00    -0.105 SA
ATOM      2  C   UNL     1      60.299  25.850  -1.237  1.00  0.00     0.004 C 
ATOM      3  C   UNL     1      59.138  26.473  -1.011  1.00  0.00     0.137 C 
ATOM      4  N   UNL     1      59.203  27.844  -0.981  1.00  0.00    -0.291 N 
ATOM      5  C   UNL     1      60.601  28.309  -0.986  1.00  0.00     0.102 C 
ATOM      6  C   UNL     1      60.184  29.354  -2.051  1.00  0.00     0.106 C 
ATOM      7  C   UNL     1      58.872  28.557  -2.106  1.00  0.00     0.238 C 
ATOM      8  O   UNL     1      57.949  28.465  -2.881  1.00  0.00    -0.274 OA
ENDROOT
BRANCH   3   9
ATOM      9  C   UNL     1      57.832  25.792  -0.802  1.00  0.00     0.355 C 
ATOM     10  O   UNL     1      57.293  25.083  -1.640  1.00  0.00    -0.244 OA
BRANCH   9  11
ATOM     11  O   UNL     1      57.336  26.081   0.427  1.00  0.00    -0.457 OA
BRANCH  11  12
ATOM     12  C   UNL     1      56.035  26.672   0.393  1.00  0.00     0.110 C 
BRANCH  12  13
ATOM     13  C   UNL     1      56.177  28.077   0.892  1.00  0.00    -0.054 C 
ATOM     14  C   UNL     1      55.987  29.174   0.147  1.00  0.00    -0.100 C 
ENDBRANCH  12  13
ENDBRANCH  11  12
ENDBRANCH   9  11
ENDBRANCH   3   9
BRANCH   6  15
ATOM     15  C   UNL     1      60.937  29.485  -3.369  1.00  0.00     0.113 C 
ATOM     16  C   UNL     1      60.257  30.526  -4.257  1.00  0.00    -0.027 C 
BRANCH  15  17
ATOM     17  O   UNL     1      62.263  29.970  -3.049  1.00  0.00    -0.462 OA
BRANCH  17  18
ATOM     18  C   UNL     1      63.322  29.916  -3.891  1.00  0.00     0.302 C 
ATOM     19  O   UNL     1      63.841  30.948  -4.305  1.00  0.00    -0.253 OA
ATOM     20  C   UNL     1      63.842  28.564  -4.276  1.00  0.00     0.034 C 
ENDBRANCH  17  18
ENDBRANCH  15  17
ENDBRANCH   6  15
TORSDOF 7
ENDMDL
MODEL 6
REMARK VINA RESULT:    -4.908     12.884     15.316
REMARK INTER + INTRA:          -7.254
REMARK INTER:                  -6.946
REMARK INTRA:                  -0.307
REMARK UNBOUND:                -0.337
REMARK SMILES C=CCOC(=O)C1=CS[C@H]2[C@@H]([C@@H](C)OC(C)=O)C(=O)N12
REMARK SMILES IDX 9 1 8 2 7 3 20 4 10 5 11 6 18 7 19 8 5 9 6 10 4 11 3 12 2 13
REMARK SMILES IDX 1 14 12 15 13 16 14 17 15 18 17 19 16 20
REMARK H PARENT
REMARK Flexibility Score: inf
ROOT
ATOM      1  S   UNL     1      63.682  21.764   8.634  1.00  0.00    -0.105 SA
ATOM      2  C   UNL     1      62.863  20.618   7.586  1.00  0.00     0.004 C 
ATOM      3  C   UNL     1      63.593  19.578   7.168  1.00  0.00     0.137 C 
ATOM      4  N   UNL     1      64.906  19.585   7.564  1.00  0.00    -0.291 N 
ATOM      5  C   UNL     1      65.267  20.873   8.185  1.00  0.00     0.102 C 
ATOM      6  C   UNL     1      65.981  20.066   9.298  1.00  0.00     0.106 C 
ATOM      7  C   UNL     1      65.280  18.854   8.664  1.00  0.00     0.238 C 
ATOM      8  O   UNL     1      65.023  17.725   9.012  1.00  0.00    -0.274 OA
ENDROOT
BRANCH   3   9
ATOM      9  C   UNL     1      63.079  18.457   6.334  1.00  0.00     0.355 C 
ATOM     10  O   UNL     1      63.253  18.373   5.128  1.00  0.00    -0.244 OA
BRANCH   9  11
ATOM     11  O   UNL     1      62.395  17.570   7.100  1.00  0.00    -0.457 OA
BRANCH  11  12
ATOM     12  C   UNL     1      61.164  17.143   6.515  1.00  0.00     0.110 C 
BRANCH  12  13
ATOM     13  C   UNL     1      60.130  18.168   6.868  1.00  0.00    -0.054 C 
ATOM     14  C   UNL     1      59.485  18.228   8.041  1.00  0.00    -0.100 C 
ENDBRANCH  12  13
ENDBRANCH  11  12
ENDBRANCH   9  11
ENDBRANCH   3   9
BRANCH   6  15
ATOM     15  C   UNL     1      65.679  20.311  10.771  1.00  0.00     0.113 C 
ATOM     16  C   UNL     1      66.426  19.295  11.633  1.00  0.00    -0.027 C 
BRANCH  15  17
ATOM     17  O   UNL     1      66.188  21.627  11.090  1.00  0.00    -0.462 OA
BRANCH  17  18
ATOM     18  C   UNL     1      65.799  22.360  12.160  1.00  0.00     0.302 C 
ATOM     19  O   UNL     1      66.472  22.371  13.186  1.00  0.00    -0.253 OA
ATOM     20  C   UNL     1      64.540  23.164  12.037  1.00  0.00     0.034 C 
ENDBRANCH  17  18
ENDBRANCH  15  17
ENDBRANCH   6  15
TORSDOF 7
ENDMDL
MODEL 7
REMARK VINA RESULT:    -4.908      4.323      6.971
REMARK INTER + INTRA:          -7.253
REMARK INTER:                  -6.774
REMARK INTRA:                  -0.479
REMARK UNBOUND:                -0.337
REMARK SMILES C=CCOC(=O)C1=CS[C@H]2[C@@H]([C@@H](C)OC(C)=O)C(=O)N12
REMARK SMILES IDX 9 1 8 2 7 3 20 4 10 5 11 6 18 7 19 8 5 9 6 10 4 11 3 12 2 13
REMARK SMILES IDX 1 14 12 15 13 16 14 17 15 18 17 19 16 20
REMARK H PARENT
REMARK Flexibility Score: inf
ROOT
ATOM      1  S   UNL     1      57.466  22.950   3.485  1.00  0.00    -0.105 SA
ATOM      2  C   UNL     1      56.334  23.166   2.161  1.00  0.00     0.004 C 
ATOM      3  C   UNL     1      56.302  24.383   1.607  1.00  0.00     0.137 C 
ATOM      4  N   UNL     1      57.114  25.318   2.197  1.00  0.00    -0.291 N 
ATOM      5  C   UNL     1      57.677  24.810   3.462  1.00  0.00     0.102 C 
ATOM      6  C   UNL     1      59.046  25.376   3.008  1.00  0.00     0.106 C 
ATOM      7  C   UNL     1      58.348  25.575   1.653  1.00  0.00     0.238 C 
ATOM      8  O   UNL     1      58.709  25.757   0.514  1.00  0.00    -0.274 OA
ENDROOT
BRANCH   3   9
ATOM      9  C   UNL     1      55.470  24.763   0.433  1.00  0.00     0.355 C 
ATOM     10  O   UNL     1      55.412  24.111  -0.598  1.00  0.00    -0.244 OA
BRANCH   9  11
ATOM     11  O   UNL     1      54.811  25.924   0.674  1.00  0.00    -0.457 OA
BRANCH  11  12
ATOM     12  C   UNL     1      54.609  26.719  -0.496  1.00  0.00     0.110 C 
BRANCH  12  13
ATOM     13  C   UNL     1      55.710  27.734  -0.533  1.00  0.00    -0.054 C 
ATOM     14  C   UNL     1      56.130  28.443   0.523  1.00  0.00    -0.100 C 
ENDBRANCH  12  13
ENDBRANCH  11  12
ENDBRANCH   9  11
ENDBRANCH   3   9
BRANCH   6  15
ATOM     15  C   UNL     1      60.295  24.504   2.988  1.00  0.00     0.113 C 
ATOM     16  C   UNL     1      61.444  25.254   2.318  1.00  0.00    -0.027 C 
BRANCH  15  17
ATOM     17  O   UNL     1      60.662  24.266   4.368  1.00  0.00    -0.462 OA
BRANCH  17  18
ATOM     18  C   UNL     1      61.554  23.331   4.773  1.00  0.00     0.302 C 
ATOM     19  O   UNL     1      62.273  23.537   5.746  1.00  0.00    -0.253 OA
ATOM     20  C   UNL     1      61.613  22.043   4.009  1.00  0.00     0.034 C 
ENDBRANCH  17  18
ENDBRANCH  15  17
ENDBRANCH   6  15
TORSDOF 7
ENDMDL
MODEL 8
REMARK VINA RESULT:    -4.797      9.991     12.556
REMARK INTER + INTRA:          -7.097
REMARK INTER:                  -7.231
REMARK INTRA:                   0.134
REMARK UNBOUND:                -0.337
REMARK SMILES C=CCOC(=O)C1=CS[C@H]2[C@@H]([C@@H](C)OC(C)=O)C(=O)N12
REMARK SMILES IDX 9 1 8 2 7 3 20 4 10 5 11 6 18 7 19 8 5 9 6 10 4 11 3 12 2 13
REMARK SMILES IDX 1 14 12 15 13 16 14 17 15 18 17 19 16 20
REMARK H PARENT
REMARK Flexibility Score: inf
ROOT
ATOM      1  S   UNL     1      65.441  21.410   5.577  1.00  0.00    -0.105 SA
ATOM      2  C   UNL     1      64.718  21.372   7.176  1.00  0.00     0.004 C 
ATOM      3  C   UNL     1      64.097  22.490   7.568  1.00  0.00     0.137 C 
ATOM      4  N   UNL     1      64.169  23.540   6.688  1.00  0.00    -0.291 N 
ATOM      5  C   UNL     1      65.117  23.254   5.595  1.00  0.00     0.102 C 
ATOM      6  C   UNL     1      64.056  23.810   4.612  1.00  0.00     0.106 C 
ATOM      7  C   UNL     1      63.121  23.771   5.831  1.00  0.00     0.238 C 
ATOM      8  O   UNL     1      61.925  23.798   6.003  1.00  0.00    -0.274 OA
ENDROOT
BRANCH   3   9
ATOM      9  C   UNL     1      63.361  22.650   8.850  1.00  0.00     0.355 C 
ATOM     10  O   UNL     1      62.212  22.273   9.026  1.00  0.00    -0.244 OA
BRANCH   9  11
ATOM     11  O   UNL     1      64.138  23.276   9.769  1.00  0.00    -0.457 OA
BRANCH  11  12
ATOM     12  C   UNL     1      64.203  22.592  11.022  1.00  0.00     0.110 C 
BRANCH  12  13
ATOM     13  C   UNL     1      65.360  21.643  10.945  1.00  0.00    -0.054 C 
ATOM     14  C   UNL     1      65.917  21.032  11.999  1.00  0.00    -0.100 C 
ENDBRANCH  12  13
ENDBRANCH  11  12
ENDBRANCH   9  11
ENDBRANCH   3   9
BRANCH   6  15
ATOM     15  C   UNL     1      63.601  23.006   3.401  1.00  0.00     0.113 C 
ATOM     16  C   UNL     1      62.295  23.579   2.855  1.00  0.00    -0.027 C 
BRANCH  15  17
ATOM     17  O   UNL     1      64.618  23.167   2.385  1.00  0.00    -0.462 OA
BRANCH  17  18
ATOM     18  C   UNL     1      65.277  24.324   2.137  1.00  0.00     0.302 C 
ATOM     19  O   UNL     1      64.671  25.312   1.735  1.00  0.00    -0.253 OA
ATOM     20  C   UNL     1      66.754  24.356   2.392  1.00  0.00     0.034 C 
ENDBRANCH  17  18
ENDBRANCH  15  17
ENDBRANCH   6  15
TORSDOF 7
ENDMDL
MODEL 9
REMARK VINA RESULT:    -4.789      9.475     12.402
REMARK INTER + INTRA:          -7.086
REMARK INTER:                  -7.409
REMARK INTRA:                   0.324
REMARK UNBOUND:                -0.337
REMARK SMILES C=CCOC(=O)C1=CS[C@H]2[C@@H]([C@@H](C)OC(C)=O)C(=O)N12
REMARK SMILES IDX 9 1 8 2 7 3 20 4 10 5 11 6 18 7 19 8 5 9 6 10 4 11 3 12 2 13
REMARK SMILES IDX 1 14 12 15 13 16 14 17 15 18 17 19 16 20
REMARK H PARENT
REMARK Flexibility Score: inf
ROOT
ATOM      1  S   UNL     1      65.235  25.316   1.622  1.00  0.00    -0.105 SA
ATOM      2  C   UNL     1      64.565  25.398   3.243  1.00  0.00     0.004 C 
ATOM      3  C   UNL     1      65.229  24.725   4.188  1.00  0.00     0.137 C 
ATOM      4  N   UNL     1      66.310  24.004   3.746  1.00  0.00    -0.291 N 
ATOM      5  C   UNL     1      66.356  23.965   2.273  1.00  0.00     0.102 C 
ATOM      6  C   UNL     1      67.872  24.271   2.374  1.00  0.00     0.106 C 
ATOM      7  C   UNL     1      67.568  24.544   3.855  1.00  0.00     0.238 C 
ATOM      8  O   UNL     1      68.127  25.118   4.760  1.00  0.00    -0.274 OA
ENDROOT
BRANCH   3   9
ATOM      9  C   UNL     1      64.878  24.716   5.634  1.00  0.00     0.355 C 
ATOM     10  O   UNL     1      65.502  25.326   6.489  1.00  0.00    -0.244 OA
BRANCH   9  11
ATOM     11  O   UNL     1      63.790  23.936   5.853  1.00  0.00    -0.457 OA
BRANCH  11  12
ATOM     12  C   UNL     1      64.099  22.687   6.476  1.00  0.00     0.110 C 
BRANCH  12  13
ATOM     13  C   UNL     1      63.185  22.545   7.655  1.00  0.00    -0.054 C 
ATOM     14  C   UNL     1      63.587  22.529   8.933  1.00  0.00    -0.100 C 
ENDBRANCH  12  13
ENDBRANCH  11  12
ENDBRANCH   9  11
ENDBRANCH   3   9
BRANCH   6  15
ATOM     15  C   UNL     1      68.499  25.425   1.602  1.00  0.00     0.113 C 
ATOM     16  C   UNL     1      69.908  25.697   2.124  1.00  0.00    -0.027 C 
BRANCH  15  17
ATOM     17  O   UNL     1      68.609  24.996   0.224  1.00  0.00    -0.462 OA
BRANCH  17  18
ATOM     18  C   UNL     1      69.340  23.934  -0.192  1.00  0.00     0.302 C 
ATOM     19  O   UNL     1      70.540  24.054  -0.419  1.00  0.00    -0.253 OA
ATOM     20  C   UNL     1      68.639  22.617  -0.339  1.00  0.00     0.034 C 
ENDBRANCH  17  18
ENDBRANCH  15  17
ENDBRANCH   6  15
TORSDOF 7
ENDMDL
MODEL 10
REMARK VINA RESULT:    -4.781     11.842     13.679
REMARK INTER + INTRA:          -7.074
REMARK INTER:                  -6.883
REMARK INTRA:                  -0.192
REMARK UNBOUND:                -0.337
REMARK SMILES C=CCOC(=O)C1=CS[C@H]2[C@@H]([C@@H](C)OC(C)=O)C(=O)N12
REMARK SMILES IDX 9 1 8 2 7 3 20 4 10 5 11 6 18 7 19 8 5 9 6 10 4 11 3 12 2 13
REMARK SMILES IDX 1 14 12 15 13 16 14 17 15 18 17 19 16 20
REMARK H PARENT
REMARK Flexibility Score: inf
ROOT
ATOM      1  S   UNL     1      66.017  20.406   6.938  1.00  0.00    -0.105 SA
ATOM      2  C   UNL     1      65.328  21.793   6.111  1.00  0.00     0.004 C 
ATOM      3  C   UNL     1      64.226  22.316   6.658  1.00  0.00     0.137 C 
ATOM      4  N   UNL     1      63.744  21.652   7.758  1.00  0.00    -0.291 N 
ATOM      5  C   UNL     1      64.442  20.368   7.951  1.00  0.00     0.102 C 
ATOM      6  C   UNL     1      64.545  20.720   9.456  1.00  0.00     0.106 C 
ATOM      7  C   UNL     1      64.063  22.110   9.012  1.00  0.00     0.238 C 
ATOM      8  O   UNL     1      64.066  23.219   9.493  1.00  0.00    -0.274 OA
ENDROOT
BRANCH   3   9
ATOM      9  C   UNL     1      63.522  23.530   6.162  1.00  0.00     0.355 C 
ATOM     10  O   UNL     1      62.327  23.733   6.316  1.00  0.00    -0.244 OA
BRANCH   9  11
ATOM     11  O   UNL     1      64.389  24.352   5.519  1.00  0.00    -0.457 OA
BRANCH  11  12
ATOM     12  C   UNL     1      63.999  24.654   4.178  1.00  0.00     0.110 C 
BRANCH  12  13
ATOM     13  C   UNL     1      64.966  25.674   3.658  1.00  0.00    -0.054 C 
ATOM     14  C   UNL     1      65.274  25.844   2.366  1.00  0.00    -0.100 C 
ENDBRANCH  12  13
ENDBRANCH  11  12
ENDBRANCH   9  11
ENDBRANCH   3   9
BRANCH   6  15
ATOM     15  C   UNL     1      65.880  20.683  10.189  1.00  0.00     0.113 C 
ATOM     16  C   UNL     1      65.721  21.268  11.591  1.00  0.00    -0.027 C 
BRANCH  15  17
ATOM     17  O   UNL     1      66.244  19.289  10.325  1.00  0.00    -0.462 OA
BRANCH  17  18
ATOM     18  C   UNL     1      67.519  18.832  10.373  1.00  0.00     0.302 C 
ATOM     19  O   UNL     1      68.306  19.087   9.467  1.00  0.00    -0.253 OA
ATOM     20  C   UNL     1      67.930  18.032  11.571  1.00  0.00     0.034 C 
ENDBRANCH  17  18
ENDBRANCH  15  17
ENDBRANCH   6  15
TORSDOF 7
ENDMDL
MODEL 11
REMARK VINA RESULT:    -4.695      9.596     12.336
REMARK INTER + INTRA:          -6.954
REMARK INTER:                  -6.630
REMARK INTRA:                  -0.324
REMARK UNBOUND:                -0.337
REMARK SMILES C=CCOC(=O)C1=CS[C@H]2[C@@H]([C@@H](C)OC(C)=O)C(=O)N12
REMARK SMILES IDX 9 1 8 2 7 3 20 4 10 5 11 6 18 7 19 8 5 9 6 10 4 11 3 12 2 13
REMARK SMILES IDX 1 14 12 15 13 16 14 17 15 18 17 19 16 20
REMARK H PARENT
REMARK Flexibility Score: inf
ROOT
ATOM      1  S   UNL     1      65.980  25.743   4.704  1.00  0.00    -0.105 SA
ATOM      2  C   UNL     1      65.157  25.050   6.092  1.00  0.00     0.004 C 
ATOM      3  C   UNL     1      64.196  24.161   5.822  1.00  0.00     0.137 C 
ATOM      4  N   UNL     1      63.937  23.962   4.489  1.00  0.00    -0.291 N 
ATOM      5  C   UNL     1      64.642  24.954   3.658  1.00  0.00     0.102 C 
ATOM      6  C   UNL     1      65.051  23.789   2.722  1.00  0.00     0.106 C 
ATOM      7  C   UNL     1      64.510  22.892   3.847  1.00  0.00     0.238 C 
ATOM      8  O   UNL     1      64.625  21.729   4.155  1.00  0.00    -0.274 OA
ENDROOT
BRANCH   3   9
ATOM      9  C   UNL     1      63.424  23.405   6.845  1.00  0.00     0.355 C 
ATOM     10  O   UNL     1      62.232  23.150   6.746  1.00  0.00    -0.244 OA
BRANCH   9  11
ATOM     11  O   UNL     1      64.223  23.059   7.884  1.00  0.00    -0.457 OA
BRANCH  11  12
ATOM     12  C   UNL     1      64.551  21.668   7.914  1.00  0.00     0.110 C 
BRANCH  12  13
ATOM     13  C   UNL     1      64.620  21.264   9.356  1.00  0.00    -0.054 C 
ATOM     14  C   UNL     1      65.737  20.877   9.986  1.00  0.00    -0.100 C 
ENDBRANCH  12  13
ENDBRANCH  11  12
ENDBRANCH   9  11
ENDBRANCH   3   9
BRANCH   6  15
ATOM     15  C   UNL     1      66.506  23.559   2.334  1.00  0.00     0.113 C 
ATOM     16  C   UNL     1      66.621  22.315   1.455  1.00  0.00    -0.027 C 
BRANCH  15  17
ATOM     17  O   UNL     1      66.915  24.702   1.545  1.00  0.00    -0.462 OA
BRANCH  17  18
ATOM     18  C   UNL     1      68.190  25.145   1.443  1.00  0.00     0.302 C 
ATOM     19  O   UNL     1      68.585  25.674   0.409  1.00  0.00    -0.253 OA
ATOM     20  C   UNL     1      69.084  24.986   2.636  1.00  0.00     0.034 C 
ENDBRANCH  17  18
ENDBRANCH  15  17
ENDBRANCH   6  15
TORSDOF 7
ENDMDL
MODEL 12
REMARK VINA RESULT:    -4.691      9.785     12.165
REMARK INTER + INTRA:          -6.949
REMARK INTER:                  -6.858
REMARK INTRA:                  -0.091
REMARK UNBOUND:                -0.337
REMARK SMILES C=CCOC(=O)C1=CS[C@H]2[C@@H]([C@@H](C)OC(C)=O)C(=O)N12
REMARK SMILES IDX 9 1 8 2 7 3 20 4 10 5 11 6 18 7 19 8 5 9 6 10 4 11 3 12 2 13
REMARK SMILES IDX 1 14 12 15 13 16 14 17 15 18 17 19 16 20
REMARK H PARENT
REMARK Flexibility Score: inf
ROOT
ATOM      1  S   UNL     1      64.902  21.116   5.711  1.00  0.00    -0.105 SA
ATOM      2  C   UNL     1      64.138  22.309   4.673  1.00  0.00     0.004 C 
ATOM      3  C   UNL     1      62.938  22.748   5.067  1.00  0.00     0.137 C 
ATOM      4  N   UNL     1      62.437  22.154   6.197  1.00  0.00    -0.291 N 
ATOM      5  C   UNL     1      63.256  20.995   6.596  1.00  0.00     0.102 C 
ATOM      6  C   UNL     1      63.179  21.519   8.052  1.00  0.00     0.106 C 
ATOM      7  C   UNL     1      62.585  22.782   7.409  1.00  0.00     0.238 C 
ATOM      8  O   UNL     1      62.417  23.929   7.753  1.00  0.00    -0.274 OA
ENDROOT
BRANCH   3   9
ATOM      9  C   UNL     1      62.149  23.804   4.377  1.00  0.00     0.355 C 
ATOM     10  O   UNL     1      62.639  24.644   3.636  1.00  0.00    -0.244 OA
BRANCH   9  11
ATOM     11  O   UNL     1      60.835  23.702   4.698  1.00  0.00    -0.457 OA
BRANCH  11  12
ATOM     12  C   UNL     1      59.987  23.482   3.569  1.00  0.00     0.110 C 
BRANCH  12  13
ATOM     13  C   UNL     1      58.746  24.292   3.786  1.00  0.00    -0.054 C 
ATOM     14  C   UNL     1      57.544  23.998   3.274  1.00  0.00    -0.100 C 
ENDBRANCH  12  13
ENDBRANCH  11  12
ENDBRANCH   9  11
ENDBRANCH   3   9
BRANCH   6  15
ATOM     15  C   UNL     1      64.437  21.727   8.885  1.00  0.00     0.113 C 
ATOM     16  C   UNL     1      64.094  22.484  10.167  1.00  0.00    -0.027 C 
BRANCH  15  17
ATOM     17  O   UNL     1      64.915  20.413   9.258  1.00  0.00    -0.462 OA
BRANCH  17  18
ATOM     18  C   UNL     1      66.055  20.182   9.951  1.00  0.00     0.302 C 
ATOM     19  O   UNL     1      67.138  20.557   9.513  1.00  0.00    -0.253 OA
ATOM     20  C   UNL     1      65.941  19.477  11.269  1.00  0.00     0.034 C 
ENDBRANCH  17  18
ENDBRANCH  15  17
ENDBRANCH   6  15
TORSDOF 7
ENDMDL
MODEL 13
REMARK VINA RESULT:    -4.676      1.970      6.898
REMARK INTER + INTRA:          -6.927
REMARK INTER:                  -6.626
REMARK INTRA:                  -0.302
REMARK UNBOUND:                -0.337
REMARK SMILES C=CCOC(=O)C1=CS[C@H]2[C@@H]([C@@H](C)OC(C)=O)C(=O)N12
REMARK SMILES IDX 9 1 8 2 7 3 20 4 10 5 11 6 18 7 19 8 5 9 6 10 4 11 3 12 2 13
REMARK SMILES IDX 1 14 12 15 13 16 14 17 15 18 17 19 16 20
REMARK H PARENT
REMARK Flexibility Score: inf
ROOT
ATOM      1  S   UNL     1      58.535  28.392  -1.721  1.00  0.00    -0.105 SA
ATOM      2  C   UNL     1      57.315  28.273  -0.464  1.00  0.00     0.004 C 
ATOM      3  C   UNL     1      57.148  27.062   0.080  1.00  0.00     0.137 C 
ATOM      4  N   UNL     1      57.909  26.061  -0.469  1.00  0.00    -0.291 N 
ATOM      5  C   UNL     1      58.584  26.520  -1.697  1.00  0.00     0.102 C 
ATOM      6  C   UNL     1      59.872  25.839  -1.171  1.00  0.00     0.106 C 
ATOM      7  C   UNL     1      59.084  25.699   0.142  1.00  0.00     0.238 C 
ATOM      8  O   UNL     1      59.364  25.486   1.298  1.00  0.00    -0.274 OA
ENDROOT
BRANCH   3   9
ATOM      9  C   UNL     1      56.223  26.754   1.203  1.00  0.00     0.355 C 
ATOM     10  O   UNL     1      56.238  27.338   2.277  1.00  0.00    -0.244 OA
BRANCH   9  11
ATOM     11  O   UNL     1      55.386  25.741   0.866  1.00  0.00    -0.457 OA
BRANCH  11  12
ATOM     12  C   UNL     1      54.304  26.149   0.027  1.00  0.00     0.110 C 
BRANCH  12  13
ATOM     13  C   UNL     1      53.561  24.909  -0.367  1.00  0.00    -0.054 C 
ATOM     14  C   UNL     1      53.644  23.735   0.271  1.00  0.00    -0.100 C 
ENDBRANCH  12  13
ENDBRANCH  11  12
ENDBRANCH   9  11
ENDBRANCH   3   9
BRANCH   6  15
ATOM     15  C   UNL     1      61.188  26.600  -1.076  1.00  0.00     0.113 C 
ATOM     16  C   UNL     1      62.264  25.707  -0.464  1.00  0.00    -0.027 C 
BRANCH  15  17
ATOM     17  O   UNL     1      61.588  26.916  -2.431  1.00  0.00    -0.462 OA
BRANCH  17  18
ATOM     18  C   UNL     1      62.307  28.009  -2.782  1.00  0.00     0.302 C 
ATOM     19  O   UNL     1      62.195  29.056  -2.153  1.00  0.00    -0.253 OA
ATOM     20  C   UNL     1      63.248  27.883  -3.942  1.00  0.00     0.034 C 
ENDBRANCH  17  18
ENDBRANCH  15  17
ENDBRANCH   6  15
TORSDOF 7
ENDMDL
MODEL 14
REMARK VINA RESULT:    -4.659      2.287      3.096
REMARK INTER + INTRA:          -6.903
REMARK INTER:                  -6.733
REMARK INTRA:                  -0.170
REMARK UNBOUND:                -0.337
REMARK SMILES C=CCOC(=O)C1=CS[C@H]2[C@@H]([C@@H](C)OC(C)=O)C(=O)N12
REMARK SMILES IDX 9 1 8 2 7 3 20 4 10 5 11 6 18 7 19 8 5 9 6 10 4 11 3 12 2 13
REMARK SMILES IDX 1 14 12 15 13 16 14 17 15 18 17 19 16 20
REMARK H PARENT
REMARK Flexibility Score: inf
ROOT
ATOM      1  S   UNL     1      58.905  25.250  -0.295  1.00  0.00    -0.105 SA
ATOM      2  C   UNL     1      59.447  26.389  -1.518  1.00  0.00     0.004 C 
ATOM      3  C   UNL     1      58.565  27.327  -1.879  1.00  0.00     0.137 C 
ATOM      4  N   UNL     1      57.330  27.229  -1.291  1.00  0.00    -0.291 N 
ATOM      5  C   UNL     1      57.192  25.961  -0.552  1.00  0.00     0.102 C 
ATOM      6  C   UNL     1      56.569  26.777   0.609  1.00  0.00     0.106 C 
ATOM      7  C   UNL     1      57.047  28.000  -0.191  1.00  0.00     0.238 C 
ATOM      8  O   UNL     1      57.238  29.168   0.051  1.00  0.00    -0.274 OA
ENDROOT
BRANCH   3   9
ATOM      9  C   UNL     1      58.839  28.427  -2.842  1.00  0.00     0.355 C 
ATOM     10  O   UNL     1      58.114  28.700  -3.787  1.00  0.00    -0.244 OA
BRANCH   9  11
ATOM     11  O   UNL     1      59.997  29.060  -2.525  1.00  0.00    -0.457 OA
BRANCH  11  12
ATOM     12  C   UNL     1      60.688  29.588  -3.658  1.00  0.00     0.110 C 
BRANCH  12  13
ATOM     13  C   UNL     1      61.986  30.148  -3.160  1.00  0.00    -0.054 C 
ATOM     14  C   UNL     1      63.039  30.437  -3.935  1.00  0.00    -0.100 C 
ENDBRANCH  12  13
ENDBRANCH  11  12
ENDBRANCH   9  11
ENDBRANCH   3   9
BRANCH   6  15
ATOM     15  C   UNL     1      57.102  26.665   2.031  1.00  0.00     0.113 C 
ATOM     16  C   UNL     1      56.410  27.687   2.930  1.00  0.00    -0.027 C 
BRANCH  15  17
ATOM     17  O   UNL     1      56.753  25.344   2.507  1.00  0.00    -0.462 OA
BRANCH  17  18
ATOM     18  C   UNL     1      57.550  24.575   3.288  1.00  0.00     0.302 C 
ATOM     19  O   UNL     1      58.551  25.051   3.813  1.00  0.00    -0.253 OA
ATOM     20  C   UNL     1      57.152  23.146   3.500  1.00  0.00     0.034 C 
ENDBRANCH  17  18
ENDBRANCH  15  17
ENDBRANCH   6  15
TORSDOF 7
ENDMDL
MODEL 15
REMARK VINA RESULT:    -4.617      4.731      5.700
REMARK INTER + INTRA:          -6.843
REMARK INTER:                  -6.792
REMARK INTRA:                  -0.052
REMARK UNBOUND:                -0.337
REMARK SMILES C=CCOC(=O)C1=CS[C@H]2[C@@H]([C@@H](C)OC(C)=O)C(=O)N12
REMARK SMILES IDX 9 1 8 2 7 3 20 4 10 5 11 6 18 7 19 8 5 9 6 10 4 11 3 12 2 13
REMARK SMILES IDX 1 14 12 15 13 16 14 17 15 18 17 19 16 20
REMARK H PARENT
REMARK Flexibility Score: inf
ROOT
ATOM      1  S   UNL     1      58.652  25.662   0.695  1.00  0.00    -0.105 SA
ATOM      2  C   UNL     1      60.214  25.337   1.428  1.00  0.00     0.004 C 
ATOM      3  C   UNL     1      60.195  24.974   2.714  1.00  0.00     0.137 C 
ATOM      4  N   UNL     1      58.957  24.970   3.306  1.00  0.00    -0.291 N 
ATOM      5  C   UNL     1      57.947  25.591   2.428  1.00  0.00     0.102 C 
ATOM      6  C   UNL     1      57.008  24.409   2.777  1.00  0.00     0.106 C 
ATOM      7  C   UNL     1      58.264  23.789   3.409  1.00  0.00     0.238 C 
ATOM      8  O   UNL     1      58.601  22.681   3.753  1.00  0.00    -0.274 OA
ENDROOT
BRANCH   3   9
ATOM      9  C   UNL     1      61.392  24.586   3.508  1.00  0.00     0.355 C 
ATOM     10  O   UNL     1      61.341  24.163   4.653  1.00  0.00    -0.244 OA
BRANCH   9  11
ATOM     11  O   UNL     1      62.524  24.779   2.785  1.00  0.00    -0.457 OA
BRANCH  11  12
ATOM     12  C   UNL     1      63.722  24.638   3.552  1.00  0.00     0.110 C 
BRANCH  12  13
ATOM     13  C   UNL     1      64.662  25.714   3.101  1.00  0.00    -0.054 C 
ATOM     14  C   UNL     1      65.257  25.753   1.901  1.00  0.00    -0.100 C 
ENDBRANCH  12  13
ENDBRANCH  11  12
ENDBRANCH   9  11
ENDBRANCH   3   9
BRANCH   6  15
ATOM     15  C   UNL     1      56.337  23.583   1.687  1.00  0.00     0.113 C 
ATOM     16  C   UNL     1      55.741  22.312   2.288  1.00  0.00    -0.027 C 
BRANCH  15  17
ATOM     17  O   UNL     1      55.250  24.382   1.164  1.00  0.00    -0.462 OA
BRANCH  17  18
ATOM     18  C   UNL     1      55.076  24.675  -0.147  1.00  0.00     0.302 C 
ATOM     19  O   UNL     1      55.735  24.098  -1.006  1.00  0.00    -0.253 OA
ATOM     20  C   UNL     1      54.045  25.703  -0.504  1.00  0.00     0.034 C 
ENDBRANCH  17  18
ENDBRANCH  15  17
ENDBRANCH   6  15
TORSDOF 7
ENDMDL
MODEL 16
REMARK VINA RESULT:    -4.614      6.229      9.214
REMARK INTER + INTRA:          -6.840
REMARK INTER:                  -6.593
REMARK INTRA:                  -0.247
REMARK UNBOUND:                -0.337
REMARK SMILES C=CCOC(=O)C1=CS[C@H]2[C@@H]([C@@H](C)OC(C)=O)C(=O)N12
REMARK SMILES IDX 9 1 8 2 7 3 20 4 10 5 11 6 18 7 19 8 5 9 6 10 4 11 3 12 2 13
REMARK SMILES IDX 1 14 12 15 13 16 14 17 15 18 17 19 16 20
REMARK H PARENT
REMARK Flexibility Score: inf
ROOT
ATOM      1  S   UNL     1      62.548  25.116   1.270  1.00  0.00    -0.105 SA
ATOM      2  C   UNL     1      60.909  25.303   1.873  1.00  0.00     0.004 C 
ATOM      3  C   UNL     1      60.544  24.468   2.851  1.00  0.00     0.137 C 
ATOM      4  N   UNL     1      61.482  23.531   3.204  1.00  0.00    -0.291 N 
ATOM      5  C   UNL     1      62.610  23.525   2.255  1.00  0.00     0.102 C 
ATOM      6  C   UNL     1      63.559  23.471   3.478  1.00  0.00     0.106 C 
ATOM      7  C   UNL     1      62.288  23.764   4.291  1.00  0.00     0.238 C 
ATOM      8  O   UNL     1      62.049  24.167   5.405  1.00  0.00    -0.274 OA
ENDROOT
BRANCH   3   9
ATOM      9  C   UNL     1      59.231  24.498   3.551  1.00  0.00     0.355 C 
ATOM     10  O   UNL     1      58.619  23.497   3.891  1.00  0.00    -0.244 OA
BRANCH   9  11
ATOM     11  O   UNL     1      58.823  25.778   3.740  1.00  0.00    -0.457 OA
BRANCH  11  12
ATOM     12  C   UNL     1      57.402  25.931   3.734  1.00  0.00     0.110 C 
BRANCH  12  13
ATOM     13  C   UNL     1      57.016  26.398   2.363  1.00  0.00    -0.054 C 
ATOM     14  C   UNL     1      56.654  25.591   1.357  1.00  0.00    -0.100 C 
ENDBRANCH  12  13
ENDBRANCH  11  12
ENDBRANCH   9  11
ENDBRANCH   3   9
BRANCH   6  15
ATOM     15  C   UNL     1      64.696  24.471   3.643  1.00  0.00     0.113 C 
ATOM     16  C   UNL     1      65.351  24.297   5.012  1.00  0.00    -0.027 C 
BRANCH  15  17
ATOM     17  O   UNL     1      65.683  24.154   2.633  1.00  0.00    -0.462 OA
BRANCH  17  18
ATOM     18  C   UNL     1      66.384  25.075   1.931  1.00  0.00     0.302 C 
ATOM     19  O   UNL     1      65.839  26.098   1.528  1.00  0.00    -0.253 OA
ATOM     20  C   UNL     1      67.839  24.811   1.687  1.00  0.00     0.034 C 
ENDBRANCH  17  18
ENDBRANCH  15  17
ENDBRANCH   6  15
TORSDOF 7
ENDMDL
MODEL 17
REMARK VINA RESULT:    -4.601     10.948     12.525
REMARK INTER + INTRA:          -6.822
REMARK INTER:                  -6.512
REMARK INTRA:                  -0.309
REMARK UNBOUND:                -0.337
REMARK SMILES C=CCOC(=O)C1=CS[C@H]2[C@@H]([C@@H](C)OC(C)=O)C(=O)N12
REMARK SMILES IDX 9 1 8 2 7 3 20 4 10 5 11 6 18 7 19 8 5 9 6 10 4 11 3 12 2 13
REMARK SMILES IDX 1 14 12 15 13 16 14 17 15 18 17 19 16 20
REMARK H PARENT
REMARK Flexibility Score: inf
ROOT
ATOM      1  S   UNL     1      68.779  23.851   4.440  1.00  0.00    -0.105 SA
ATOM      2  C   UNL     1      70.286  24.238   3.627  1.00  0.00     0.004 C 
ATOM      3  C   UNL     1      70.237  24.293   2.292  1.00  0.00     0.137 C 
ATOM      4  N   UNL     1      69.024  23.971   1.736  1.00  0.00    -0.291 N 
ATOM      5  C   UNL     1      68.106  23.418   2.747  1.00  0.00     0.102 C 
ATOM      6  C   UNL     1      67.003  24.331   2.155  1.00  0.00     0.106 C 
ATOM      7  C   UNL     1      68.161  24.977   1.379  1.00  0.00     0.238 C 
ATOM      8  O   UNL     1      68.329  26.017   0.786  1.00  0.00    -0.274 OA
ENDROOT
BRANCH   3   9
ATOM      9  C   UNL     1      71.375  24.670   1.412  1.00  0.00     0.355 C 
ATOM     10  O   UNL     1      71.561  24.198   0.300  1.00  0.00    -0.244 OA
BRANCH   9  11
ATOM     11  O   UNL     1      72.164  25.589   2.023  1.00  0.00    -0.457 OA
BRANCH  11  12
ATOM     12  C   UNL     1      73.562  25.331   1.875  1.00  0.00     0.110 C 
BRANCH  12  13
ATOM     13  C   UNL     1      74.160  25.342   3.249  1.00  0.00    -0.054 C 
ATOM     14  C   UNL     1      74.124  24.312   4.104  1.00  0.00    -0.100 C 
ENDBRANCH  12  13
ENDBRANCH  11  12
ENDBRANCH   9  11
ENDBRANCH   3   9
BRANCH   6  15
ATOM     15  C   UNL     1      66.192  25.270   3.040  1.00  0.00     0.113 C 
ATOM     16  C   UNL     1      65.168  26.027   2.198  1.00  0.00    -0.027 C 
BRANCH  15  17
ATOM     17  O   UNL     1      65.470  24.440   3.981  1.00  0.00    -0.462 OA
BRANCH  17  18
ATOM     18  C   UNL     1      65.261  24.760   5.280  1.00  0.00     0.302 C 
ATOM     19  O   UNL     1      65.795  25.749   5.772  1.00  0.00    -0.253 OA
ATOM     20  C   UNL     1      64.345  23.881   6.078  1.00  0.00     0.034 C 
ENDBRANCH  17  18
ENDBRANCH  15  17
ENDBRANCH   6  15
TORSDOF 7
ENDMDL
MODEL 18
REMARK VINA RESULT:    -4.587      2.313      2.980
REMARK INTER + INTRA:          -6.801
REMARK INTER:                  -6.484
REMARK INTRA:                  -0.317
REMARK UNBOUND:                -0.337
REMARK SMILES C=CCOC(=O)C1=CS[C@H]2[C@@H]([C@@H](C)OC(C)=O)C(=O)N12
REMARK SMILES IDX 9 1 8 2 7 3 20 4 10 5 11 6 18 7 19 8 5 9 6 10 4 11 3 12 2 13
REMARK SMILES IDX 1 14 12 15 13 16 14 17 15 18 17 19 16 20
REMARK H PARENT
REMARK Flexibility Score: inf
ROOT
ATOM      1  S   UNL     1      60.107  25.420  -0.041  1.00  0.00    -0.105 SA
ATOM      2  C   UNL     1      61.153  26.736  -0.548  1.00  0.00     0.004 C 
ATOM      3  C   UNL     1      60.597  27.654  -1.346  1.00  0.00     0.137 C 
ATOM      4  N   UNL     1      59.299  27.404  -1.714  1.00  0.00    -0.291 N 
ATOM      5  C   UNL     1      58.886  26.046  -1.315  1.00  0.00     0.102 C 
ATOM      6  C   UNL     1      57.563  26.667  -0.801  1.00  0.00     0.106 C 
ATOM      7  C   UNL     1      58.278  28.009  -1.026  1.00  0.00     0.238 C 
ATOM      8  O   UNL     1      58.114  29.148  -0.655  1.00  0.00    -0.274 OA
ENDROOT
BRANCH   3   9
ATOM      9  C   UNL     1      61.279  28.883  -1.834  1.00  0.00     0.355 C 
ATOM     10  O   UNL     1      61.565  29.832  -1.119  1.00  0.00    -0.244 OA
BRANCH   9  11
ATOM     11  O   UNL     1      61.520  28.795  -3.166  1.00  0.00    -0.457 OA
BRANCH  11  12
ATOM     12  C   UNL     1      62.890  28.538  -3.484  1.00  0.00     0.110 C 
BRANCH  12  13
ATOM     13  C   UNL     1      63.449  29.797  -4.072  1.00  0.00    -0.054 C 
ATOM     14  C   UNL     1      62.722  30.743  -4.680  1.00  0.00    -0.100 C 
ENDBRANCH  12  13
ENDBRANCH  11  12
ENDBRANCH   9  11
ENDBRANCH   3   9
BRANCH   6  15
ATOM     15  C   UNL     1      57.065  26.410   0.616  1.00  0.00     0.113 C 
ATOM     16  C   UNL     1      55.769  27.179   0.861  1.00  0.00    -0.027 C 
BRANCH  15  17
ATOM     17  O   UNL     1      56.770  24.996   0.706  1.00  0.00    -0.462 OA
BRANCH  17  18
ATOM     18  C   UNL     1      56.665  24.309   1.868  1.00  0.00     0.302 C 
ATOM     19  O   UNL     1      55.899  23.355   1.960  1.00  0.00    -0.253 OA
ATOM     20  C   UNL     1      57.526  24.740   3.017  1.00  0.00     0.034 C 
ENDBRANCH  17  18
ENDBRANCH  15  17
ENDBRANCH   6  15
TORSDOF 7
ENDMDL
MODEL 19
REMARK VINA RESULT:    -4.574      2.208      7.018
REMARK INTER + INTRA:          -6.783
REMARK INTER:                  -6.542
REMARK INTRA:                  -0.241
REMARK UNBOUND:                -0.337
REMARK SMILES C=CCOC(=O)C1=CS[C@H]2[C@@H]([C@@H](C)OC(C)=O)C(=O)N12
REMARK SMILES IDX 9 1 8 2 7 3 20 4 10 5 11 6 18 7 19 8 5 9 6 10 4 11 3 12 2 13
REMARK SMILES IDX 1 14 12 15 13 16 14 17 15 18 17 19 16 20
REMARK H PARENT
REMARK Flexibility Score: inf
ROOT
ATOM      1  S   UNL     1      57.880  28.209  -1.423  1.00  0.00    -0.105 SA
ATOM      2  C   UNL     1      57.040  27.846   0.075  1.00  0.00     0.004 C 
ATOM      3  C   UNL     1      57.264  26.636   0.597  1.00  0.00     0.137 C 
ATOM      4  N   UNL     1      58.071  25.815  -0.150  1.00  0.00    -0.291 N 
ATOM      5  C   UNL     1      58.329  26.392  -1.482  1.00  0.00     0.102 C 
ATOM      6  C   UNL     1      59.818  26.010  -1.291  1.00  0.00     0.106 C 
ATOM      7  C   UNL     1      59.405  25.721   0.161  1.00  0.00     0.238 C 
ATOM      8  O   UNL     1      59.984  25.588   1.214  1.00  0.00    -0.274 OA
ENDROOT
BRANCH   3   9
ATOM      9  C   UNL     1      56.711  26.150   1.890  1.00  0.00     0.355 C 
ATOM     10  O   UNL     1      56.618  26.843   2.892  1.00  0.00    -0.244 OA
BRANCH   9  11
ATOM     11  O   UNL     1      56.347  24.847   1.792  1.00  0.00    -0.457 OA
BRANCH  11  12
ATOM     12  C   UNL     1      57.029  23.992   2.712  1.00  0.00     0.110 C 
BRANCH  12  13
ATOM     13  C   UNL     1      56.314  22.676   2.702  1.00  0.00    -0.054 C 
ATOM     14  C   UNL     1      56.487  21.707   3.612  1.00  0.00    -0.100 C 
ENDBRANCH  12  13
ENDBRANCH  11  12
ENDBRANCH   9  11
ENDBRANCH   3   9
BRANCH   6  15
ATOM     15  C   UNL     1      60.928  27.037  -1.472  1.00  0.00     0.113 C 
ATOM     16  C   UNL     1      62.288  26.386  -1.225  1.00  0.00    -0.027 C 
BRANCH  15  17
ATOM     17  O   UNL     1      60.883  27.464  -2.854  1.00  0.00    -0.462 OA
BRANCH  17  18
ATOM     18  C   UNL     1      61.107  28.733  -3.272  1.00  0.00     0.302 C 
ATOM     19  O   UNL     1      60.986  29.029  -4.456  1.00  0.00    -0.253 OA
ATOM     20  C   UNL     1      61.481  29.753  -2.239  1.00  0.00     0.034 C 
ENDBRANCH  17  18
ENDBRANCH  15  17
ENDBRANCH   6  15
TORSDOF 7
ENDMDL
MODEL 20
REMARK VINA RESULT:    -4.511      2.222      6.711
REMARK INTER + INTRA:          -6.695
REMARK INTER:                  -6.358
REMARK INTRA:                  -0.337
REMARK UNBOUND:                -0.337
REMARK SMILES C=CCOC(=O)C1=CS[C@H]2[C@@H]([C@@H](C)OC(C)=O)C(=O)N12
REMARK SMILES IDX 9 1 8 2 7 3 20 4 10 5 11 6 18 7 19 8 5 9 6 10 4 11 3 12 2 13
REMARK SMILES IDX 1 14 12 15 13 16 14 17 15 18 17 19 16 20
REMARK H PARENT
REMARK Flexibility Score: inf
ROOT
ATOM      1  S   UNL     1      58.098  28.216  -1.254  1.00  0.00    -0.105 SA
ATOM      2  C   UNL     1      57.036  27.389  -0.125  1.00  0.00     0.004 C 
ATOM      3  C   UNL     1      57.095  26.053  -0.135  1.00  0.00     0.137 C 
ATOM      4  N   UNL     1      57.932  25.509  -1.076  1.00  0.00    -0.291 N 
ATOM      5  C   UNL     1      58.411  26.536  -2.019  1.00  0.00     0.102 C 
ATOM      6  C   UNL     1      59.828  25.928  -1.866  1.00  0.00     0.106 C 
ATOM      7  C   UNL     1      59.201  25.132  -0.710  1.00  0.00     0.238 C 
ATOM      8  O   UNL     1      59.619  24.515   0.241  1.00  0.00    -0.274 OA
ENDROOT
BRANCH   3   9
ATOM      9  C   UNL     1      56.337  25.161   0.783  1.00  0.00     0.355 C 
ATOM     10  O   UNL     1      55.842  24.097   0.441  1.00  0.00    -0.244 OA
BRANCH   9  11
ATOM     11  O   UNL     1      56.273  25.701   2.025  1.00  0.00    -0.457 OA
BRANCH  11  12
ATOM     12  C   UNL     1      57.435  25.450   2.818  1.00  0.00     0.110 C 
BRANCH  12  13
ATOM     13  C   UNL     1      57.424  26.442   3.941  1.00  0.00    -0.054 C 
ATOM     14  C   UNL     1      56.664  27.545   3.977  1.00  0.00    -0.100 C 
ENDBRANCH  12  13
ENDBRANCH  11  12
ENDBRANCH   9  11
ENDBRANCH   3   9
BRANCH   6  15
ATOM     15  C   UNL     1      61.027  26.794  -1.501  1.00  0.00     0.113 C 
ATOM     16  C   UNL     1      62.230  25.910  -1.180  1.00  0.00    -0.027 C 
BRANCH  15  17
ATOM     17  O   UNL     1      61.349  27.578  -2.674  1.00  0.00    -0.462 OA
BRANCH  17  18
ATOM     18  C   UNL     1      62.055  28.734  -2.652  1.00  0.00     0.302 C 
ATOM     19  O   UNL     1      63.097  28.840  -3.292  1.00  0.00    -0.253 OA
ATOM     20  C   UNL     1      61.509  29.871  -1.842  1.00  0.00     0.034 C 
ENDBRANCH  17  18
ENDBRANCH  15  17
ENDBRANCH   6  15
TORSDOF 7
ENDMDL
