MODEL 1
REMARK VINA RESULT:    -5.297      0.000      0.000
REMARK INTER + INTRA:         -14.840
REMARK INTER:                  -7.027
REMARK INTRA:                  -7.813
REMARK UNBOUND:                -7.375
REMARK SMILES C=CCOC(=O)C1=CS[C@H]2[C@@H]([C@@H](C)OC(C)=O)C(=O)N12
REMARK SMILES IDX 9 1 19 2 20 3 11 4 10 5 18 6 7 7 8 8 12 9 13 10 14 11 15 12
REMARK SMILES IDX 17 13 16 14 5 15 6 16 4 17 3 18 2 19 1 20
REMARK H PARENT
REMARK Flexibility Score: inf
ROOT
ATOM      1  S   UNL     1      73.411  30.055  79.569  1.00  0.00    -0.105 SA
ATOM      2  O   UNL     1      77.888  30.056  80.144  1.00  0.00    -0.274 OA
ATOM      3  N   UNL     1      75.679  30.515  80.841  1.00  0.00    -0.291 N 
ATOM      4  C   UNL     1      75.811  28.560  80.142  1.00  0.00     0.153 C 
ATOM      5  C   UNL     1      74.687  29.428  80.735  1.00  0.00     0.169 C 
ATOM      6  C   UNL     1      76.733  29.781  80.377  1.00  0.00     0.238 C 
ATOM      7  C   UNL     1      75.250  31.699  80.304  1.00  0.00     0.137 C 
ATOM      8  C   UNL     1      74.086  31.660  79.643  1.00  0.00     0.077 C 
ENDROOT
BRANCH   4   9
ATOM      9  C   UNL     1      75.629  28.186  78.690  1.00  0.00     0.189 C 
ATOM     10  C   UNL     1      76.974  27.996  77.998  1.00  0.00     0.054 C 
BRANCH   9  11
ATOM     11  O   UNL     1      74.884  26.972  78.602  1.00  0.00    -0.462 OA
BRANCH  11  12
ATOM     12  C   UNL     1      74.183  26.793  77.445  1.00  0.00     0.302 C 
ATOM     13  O   UNL     1      73.385  27.579  76.953  1.00  0.00    -0.253 OA
ATOM     14  C   UNL     1      74.534  25.468  76.841  1.00  0.00     0.139 C 
ENDBRANCH  11  12
ENDBRANCH   9  11
ENDBRANCH   4   9
BRANCH   7  15
ATOM     15  C   UNL     1      76.064  32.904  80.383  1.00  0.00     0.355 C 
ATOM     16  O   UNL     1      76.373  33.453  81.434  1.00  0.00    -0.244 OA
BRANCH  15  17
ATOM     17  O   UNL     1      76.404  33.292  79.125  1.00  0.00    -0.457 OA
BRANCH  17  18
ATOM     18  C   UNL     1      77.805  33.297  78.834  1.00  0.00     0.260 C 
BRANCH  18  19
ATOM     19  C   UNL     1      78.037  32.532  77.574  1.00  0.00     0.006 C 
ATOM     20  C   UNL     1      77.171  31.649  77.066  1.00  0.00     0.007 C 
ENDBRANCH  18  19
ENDBRANCH  17  18
ENDBRANCH  15  17
ENDBRANCH   7  15
TORSDOF 7
BEGIN_RES SER A  90
REMARK  2 active torsions:
REMARK  status: ('A' for Active; 'I' for Inactive)
REMARK    1  A    between atoms: CA   and  CB  
REMARK    2  A    between atoms: CB   and  OG  
ROOT
ATOM      1  CA  SER A  90      64.797  27.426  83.208  1.00 28.94     0.292 C 
ENDROOT
BRANCH   1   2
ATOM      2  CB  SER A  90      64.021  26.161  83.621  1.00 29.63     0.194 C 
BRANCH   2   3
ATOM      3  OG  SER A  90      64.080  25.143  82.637  1.00 30.29    -0.550 OA
ATOM      4  HG  SER A  90      63.285  24.625  82.602  1.00  0.00     0.310 HD
ENDBRANCH   2   3
ENDBRANCH   1   2
END_RES SER A  90
BEGIN_RES SER A  88
REMARK  2 active torsions:
REMARK  status: ('A' for Active; 'I' for Inactive)
REMARK    3  A    between atoms: CA   and  CB  
REMARK    4  A    between atoms: CB   and  OG  
ROOT
ATOM      5  CA  SER A  88      69.162  24.022  82.855  1.00 38.41     0.292 C 
ENDROOT
BRANCH   5   6
ATOM      6  CB  SER A  88      67.754  23.445  82.669  1.00 37.99     0.194 C 
BRANCH   6   7
ATOM      7  OG  SER A  88      66.821  24.072  83.530  1.00 37.76    -0.550 OA
ATOM      8  HG  SER A  88      66.371  23.436  84.075  1.00  0.00     0.310 HD
ENDBRANCH   6   7
ENDBRANCH   5   6
END_RES SER A  88
BEGIN_RES TYR A 143
REMARK  3 active torsions:
REMARK  status: ('A' for Active; 'I' for Inactive)
REMARK    5  A    between atoms: CA   and  CB  
REMARK    6  A    between atoms: CB   and  CG  
REMARK    7  A    between atoms: CZ   and  OH  
ROOT
ATOM      9  CA  TYR A 143      64.264  20.095  89.524  1.00 42.38     0.245 C 
ENDROOT
BRANCH   9  10
ATOM     10  CB  TYR A 143      62.885  20.126  88.852  1.00 47.73     0.022 C 
BRANCH  10  11
ATOM     11  CG  TYR A 143      62.846  19.627  87.428  1.00 52.08    -0.001 A 
ATOM     12  CD1 TYR A 143      62.178  18.451  87.092  1.00 55.58    -0.035 A 
ATOM     13  CE1 TYR A 143      62.124  18.003  85.770  1.00 58.22     0.100 A 
ATOM     14  CZ  TYR A 143      62.747  18.737  84.774  1.00 60.58    -0.121 A 
ATOM     15  CE2 TYR A 143      63.420  19.908  85.086  1.00 60.07     0.100 A 
ATOM     16  CD2 TYR A 143      63.464  20.345  86.409  1.00 56.72    -0.035 A 
BRANCH  14  17
ATOM     17  OH  TYR A 143      62.700  18.311  83.464  1.00 63.91    -0.368 OA
ATOM     18  HH  TYR A 143      62.947  17.421  83.240  1.00  0.00     0.339 HD
ENDBRANCH  14  17
ENDBRANCH  10  11
ENDBRANCH   9  10
END_RES TYR A 143
BEGIN_RES LYS A 145
REMARK  5 active torsions:
REMARK  status: ('A' for Active; 'I' for Inactive)
REMARK    8  A    between atoms: CA   and  CB  
REMARK    9  A    between atoms: CB   and  CG  
REMARK   10  A    between atoms: CG   and  CD  
REMARK   11  A    between atoms: CD   and  CE  
REMARK   12  A    between atoms: CE   and  NZ  
ROOT
ATOM     19  CA  LYS A 145      61.782  26.240  90.241  1.00 28.09     0.227 C 
ENDROOT
BRANCH  19  20
ATOM     20  CB  LYS A 145      60.456  25.589  89.829  1.00 28.44     0.039 C 
BRANCH  20  21
ATOM     21  CG  LYS A 145      60.280  25.369  88.336  1.00 31.62     0.053 C 
BRANCH  21  22
ATOM     22  CD  LYS A 145      59.957  23.917  88.002  1.00 34.02     0.048 C 
BRANCH  22  23
ATOM     23  CE  LYS A 145      60.937  23.384  86.966  1.00 33.58     0.218 C 
BRANCH  23  24
ATOM     24  NZ  LYS A 145      60.717  23.967  85.632  1.00 36.75    -0.272 N 
ATOM     25  HZ3 LYS A 145      61.554  23.890  85.054  1.00  0.00     0.311 HD
ATOM     26  HZ2 LYS A 145      60.083  23.392  85.078  1.00  0.00     0.311 HD
ATOM     27  HZ1 LYS A 145      60.391  24.932  85.679  1.00  0.00     0.311 HD
ENDBRANCH  23  24
ENDBRANCH  22  23
ENDBRANCH  21  22
ENDBRANCH  20  21
ENDBRANCH  19  20
END_RES LYS A 145
BEGIN_RES ALA A 279
REMARK  0 active torsions:
REMARK  status: ('A' for Active; 'I' for Inactive)
ROOT
ATOM     28  CA  ALA A 279      58.677  22.867  81.738  1.00 30.95     0.215 C 
ATOM     29  CB  ALA A 279      59.273  21.559  81.198  1.00 29.24     0.031 C 
ENDROOT
END_RES ALA A 279
ENDMDL
MODEL 2
REMARK VINA RESULT:    -5.167      9.191     11.689
REMARK INTER + INTRA:         -14.657
REMARK INTER:                  -8.143
REMARK INTRA:                  -6.513
REMARK UNBOUND:                -7.375
REMARK SMILES C=CCOC(=O)C1=CS[C@H]2[C@@H]([C@@H](C)OC(C)=O)C(=O)N12
REMARK SMILES IDX 9 1 19 2 20 3 11 4 10 5 18 6 7 7 8 8 12 9 13 10 14 11 15 12
REMARK SMILES IDX 17 13 16 14 5 15 6 16 4 17 3 18 2 19 1 20
REMARK H PARENT
REMARK Flexibility Score: inf
ROOT
ATOM      1  S   UNL     1      64.899  20.110  81.430  1.00  0.00    -0.105 SA
ATOM      2  O   UNL     1      62.097  23.147  83.247  1.00  0.00    -0.274 OA
ATOM      3  N   UNL     1      62.663  21.497  81.654  1.00  0.00    -0.291 N 
ATOM      4  C   UNL     1      63.098  20.813  83.571  1.00  0.00     0.153 C 
ATOM      5  C   UNL     1      63.212  20.222  82.155  1.00  0.00     0.169 C 
ATOM      6  C   UNL     1      62.480  22.057  82.886  1.00  0.00     0.238 C 
ATOM      7  C   UNL     1      63.402  22.049  80.643  1.00  0.00     0.137 C 
ATOM      8  C   UNL     1      64.565  21.448  80.366  1.00  0.00     0.077 C 
ENDROOT
BRANCH   4   9
ATOM      9  C   UNL     1      64.415  21.072  84.263  1.00  0.00     0.189 C 
ATOM     10  C   UNL     1      64.240  22.021  85.443  1.00  0.00     0.054 C 
BRANCH   9  11
ATOM     11  O   UNL     1      64.955  19.837  84.734  1.00  0.00    -0.462 OA
BRANCH  11  12
ATOM     12  C   UNL     1      66.317  19.765  84.770  1.00  0.00     0.302 C 
ATOM     13  O   UNL     1      67.096  20.476  84.151  1.00  0.00    -0.253 OA
ATOM     14  C   UNL     1      66.740  18.668  85.699  1.00  0.00     0.139 C 
ENDBRANCH  11  12
ENDBRANCH   9  11
ENDBRANCH   4   9
BRANCH   7  15
ATOM     15  C   UNL     1      62.972  23.269  79.973  1.00  0.00     0.355 C 
ATOM     16  O   UNL     1      61.808  23.518  79.686  1.00  0.00    -0.244 OA
BRANCH  15  17
ATOM     17  O   UNL     1      64.060  24.050  79.735  1.00  0.00    -0.457 OA
BRANCH  17  18
ATOM     18  C   UNL     1      64.178  24.563  78.405  1.00  0.00     0.260 C 
BRANCH  18  19
ATOM     19  C   UNL     1      65.342  25.495  78.350  1.00  0.00     0.006 C 
ATOM     20  C   UNL     1      66.191  25.690  79.365  1.00  0.00     0.007 C 
ENDBRANCH  18  19
ENDBRANCH  17  18
ENDBRANCH  15  17
ENDBRANCH   7  15
TORSDOF 7
BEGIN_RES SER A  90
REMARK  2 active torsions:
REMARK  status: ('A' for Active; 'I' for Inactive)
REMARK    1  A    between atoms: CA   and  CB  
REMARK    2  A    between atoms: CB   and  OG  
ROOT
ATOM      1  CA  SER A  90      64.797  27.426  83.208  1.00 28.94     0.292 C 
ENDROOT
BRANCH   1   2
ATOM      2  CB  SER A  90      64.021  26.161  83.621  1.00 29.63     0.194 C 
BRANCH   2   3
ATOM      3  OG  SER A  90      64.001  25.180  82.599  1.00 30.29    -0.550 OA
ATOM      4  HG  SER A  90      63.758  24.321  82.925  1.00  0.00     0.310 HD
ENDBRANCH   2   3
ENDBRANCH   1   2
END_RES SER A  90
BEGIN_RES SER A  88
REMARK  2 active torsions:
REMARK  status: ('A' for Active; 'I' for Inactive)
REMARK    3  A    between atoms: CA   and  CB  
REMARK    4  A    between atoms: CB   and  OG  
ROOT
ATOM      5  CA  SER A  88      69.162  24.022  82.855  1.00 38.41     0.292 C 
ENDROOT
BRANCH   5   6
ATOM      6  CB  SER A  88      67.754  23.445  82.669  1.00 37.99     0.194 C 
BRANCH   6   7
ATOM      7  OG  SER A  88      67.787  22.217  81.966  1.00 37.76    -0.550 OA
ATOM      8  HG  SER A  88      68.337  22.274  81.193  1.00  0.00     0.310 HD
ENDBRANCH   6   7
ENDBRANCH   5   6
END_RES SER A  88
BEGIN_RES TYR A 143
REMARK  3 active torsions:
REMARK  status: ('A' for Active; 'I' for Inactive)
REMARK    5  A    between atoms: CA   and  CB  
REMARK    6  A    between atoms: CB   and  CG  
REMARK    7  A    between atoms: CZ   and  OH  
ROOT
ATOM      9  CA  TYR A 143      64.264  20.095  89.524  1.00 42.38     0.245 C 
ENDROOT
BRANCH   9  10
ATOM     10  CB  TYR A 143      62.885  20.126  88.852  1.00 47.73     0.022 C 
BRANCH  10  11
ATOM     11  CG  TYR A 143      62.700  19.160  87.707  1.00 52.08    -0.001 A 
ATOM     12  CD1 TYR A 143      61.674  19.328  86.779  1.00 55.58    -0.035 A 
ATOM     13  CE1 TYR A 143      61.518  18.446  85.706  1.00 58.22     0.100 A 
ATOM     14  CZ  TYR A 143      62.395  17.383  85.563  1.00 60.58    -0.121 A 
ATOM     15  CE2 TYR A 143      63.420  17.195  86.476  1.00 60.07     0.100 A 
ATOM     16  CD2 TYR A 143      63.566  18.084  87.541  1.00 56.72    -0.035 A 
BRANCH  14  17
ATOM     17  OH  TYR A 143      62.257  16.506  84.509  1.00 63.91    -0.368 OA
ATOM     18  HH  TYR A 143      62.529  16.761  83.635  1.00  0.00     0.339 HD
ENDBRANCH  14  17
ENDBRANCH  10  11
ENDBRANCH   9  10
END_RES TYR A 143
BEGIN_RES LYS A 145
REMARK  5 active torsions:
REMARK  status: ('A' for Active; 'I' for Inactive)
REMARK    8  A    between atoms: CA   and  CB  
REMARK    9  A    between atoms: CB   and  CG  
REMARK   10  A    between atoms: CG   and  CD  
REMARK   11  A    between atoms: CD   and  CE  
REMARK   12  A    between atoms: CE   and  NZ  
ROOT
ATOM     19  CA  LYS A 145      61.782  26.240  90.241  1.00 28.09     0.227 C 
ENDROOT
BRANCH  19  20
ATOM     20  CB  LYS A 145      60.456  25.589  89.829  1.00 28.44     0.039 C 
BRANCH  20  21
ATOM     21  CG  LYS A 145      60.232  25.470  88.331  1.00 31.62     0.053 C 
BRANCH  21  22
ATOM     22  CD  LYS A 145      60.162  24.017  87.873  1.00 34.02     0.048 C 
BRANCH  22  23
ATOM     23  CE  LYS A 145      60.998  23.820  86.616  1.00 33.58     0.218 C 
BRANCH  23  24
ATOM     24  NZ  LYS A 145      60.768  22.509  85.988  1.00 36.75    -0.272 N 
ATOM     25  HZ3 LYS A 145      60.568  22.608  84.992  1.00  0.00     0.311 HD
ATOM     26  HZ2 LYS A 145      61.633  21.972  85.927  1.00  0.00     0.311 HD
ATOM     27  HZ1 LYS A 145      60.036  21.976  86.458  1.00  0.00     0.311 HD
ENDBRANCH  23  24
ENDBRANCH  22  23
ENDBRANCH  21  22
ENDBRANCH  20  21
ENDBRANCH  19  20
END_RES LYS A 145
BEGIN_RES ALA A 279
REMARK  0 active torsions:
REMARK  status: ('A' for Active; 'I' for Inactive)
ROOT
ATOM     28  CA  ALA A 279      58.677  22.867  81.738  1.00 30.95     0.215 C 
ATOM     29  CB  ALA A 279      59.273  21.559  81.198  1.00 29.24     0.031 C 
ENDROOT
END_RES ALA A 279
ENDMDL
MODEL 3
REMARK VINA RESULT:    -5.070      8.747     12.499
REMARK INTER + INTRA:         -14.520
REMARK INTER:                  -7.161
REMARK INTRA:                  -7.359
REMARK UNBOUND:                -7.375
REMARK SMILES C=CCOC(=O)C1=CS[C@H]2[C@@H]([C@@H](C)OC(C)=O)C(=O)N12
REMARK SMILES IDX 9 1 19 2 20 3 11 4 10 5 18 6 7 7 8 8 12 9 13 10 14 11 15 12
REMARK SMILES IDX 17 13 16 14 5 15 6 16 4 17 3 18 2 19 1 20
REMARK H PARENT
REMARK Flexibility Score: inf
ROOT
ATOM      1  S   UNL     1      62.473  24.569  75.371  1.00  0.00    -0.105 SA
ATOM      2  O   UNL     1      62.107  23.717  79.789  1.00  0.00    -0.274 OA
ATOM      3  N   UNL     1      61.475  23.426  77.532  1.00  0.00    -0.291 N 
ATOM      4  C   UNL     1      63.542  23.271  77.716  1.00  0.00     0.153 C 
ATOM      5  C   UNL     1      62.543  23.159  76.550  1.00  0.00     0.169 C 
ATOM      6  C   UNL     1      62.301  23.479  78.618  1.00  0.00     0.238 C 
ATOM      7  C   UNL     1      60.619  24.423  77.148  1.00  0.00     0.137 C 
ATOM      8  C   UNL     1      60.954  25.095  76.040  1.00  0.00     0.077 C 
ENDROOT
BRANCH   4   9
ATOM      9  C   UNL     1      64.470  24.460  77.649  1.00  0.00     0.189 C 
ATOM     10  C   UNL     1      65.047  24.787  79.021  1.00  0.00     0.054 C 
BRANCH   9  11
ATOM     11  O   UNL     1      65.541  24.176  76.749  1.00  0.00    -0.462 OA
BRANCH  11  12
ATOM     12  C   UNL     1      66.205  25.264  76.261  1.00  0.00     0.302 C 
ATOM     13  O   UNL     1      65.696  26.284  75.815  1.00  0.00    -0.253 OA
ATOM     14  C   UNL     1      67.683  25.035  76.350  1.00  0.00     0.139 C 
ENDBRANCH  11  12
ENDBRANCH   9  11
ENDBRANCH   4   9
BRANCH   7  15
ATOM     15  C   UNL     1      59.458  24.774  77.955  1.00  0.00     0.355 C 
ATOM     16  O   UNL     1      59.112  25.925  78.191  1.00  0.00    -0.244 OA
BRANCH  15  17
ATOM     17  O   UNL     1      58.853  23.633  78.381  1.00  0.00    -0.457 OA
BRANCH  17  18
ATOM     18  C   UNL     1      57.563  23.368  77.821  1.00  0.00     0.260 C 
BRANCH  18  19
ATOM     19  C   UNL     1      57.084  22.046  78.322  1.00  0.00     0.006 C 
ATOM     20  C   UNL     1      56.268  21.238  77.636  1.00  0.00     0.007 C 
ENDBRANCH  18  19
ENDBRANCH  17  18
ENDBRANCH  15  17
ENDBRANCH   7  15
TORSDOF 7
BEGIN_RES SER A  90
REMARK  2 active torsions:
REMARK  status: ('A' for Active; 'I' for Inactive)
REMARK    1  A    between atoms: CA   and  CB  
REMARK    2  A    between atoms: CB   and  OG  
ROOT
ATOM      1  CA  SER A  90      64.797  27.426  83.208  1.00 28.94     0.292 C 
ENDROOT
BRANCH   1   2
ATOM      2  CB  SER A  90      64.021  26.161  83.621  1.00 29.63     0.194 C 
BRANCH   2   3
ATOM      3  OG  SER A  90      64.071  25.148  82.632  1.00 30.29    -0.550 OA
ATOM      4  HG  SER A  90      63.943  24.279  82.995  1.00  0.00     0.310 HD
ENDBRANCH   2   3
ENDBRANCH   1   2
END_RES SER A  90
BEGIN_RES SER A  88
REMARK  2 active torsions:
REMARK  status: ('A' for Active; 'I' for Inactive)
REMARK    3  A    between atoms: CA   and  CB  
REMARK    4  A    between atoms: CB   and  OG  
ROOT
ATOM      5  CA  SER A  88      69.162  24.022  82.855  1.00 38.41     0.292 C 
ENDROOT
BRANCH   5   6
ATOM      6  CB  SER A  88      67.754  23.445  82.669  1.00 37.99     0.194 C 
BRANCH   6   7
ATOM      7  OG  SER A  88      66.819  24.079  83.521  1.00 37.76    -0.550 OA
ATOM      8  HG  SER A  88      67.165  24.892  83.873  1.00  0.00     0.310 HD
ENDBRANCH   6   7
ENDBRANCH   5   6
END_RES SER A  88
BEGIN_RES TYR A 143
REMARK  3 active torsions:
REMARK  status: ('A' for Active; 'I' for Inactive)
REMARK    5  A    between atoms: CA   and  CB  
REMARK    6  A    between atoms: CB   and  CG  
REMARK    7  A    between atoms: CZ   and  OH  
ROOT
ATOM      9  CA  TYR A 143      64.264  20.095  89.524  1.00 42.38     0.245 C 
ENDROOT
BRANCH   9  10
ATOM     10  CB  TYR A 143      62.885  20.126  88.852  1.00 47.73     0.022 C 
BRANCH  10  11
ATOM     11  CG  TYR A 143      62.853  19.664  87.415  1.00 52.08    -0.001 A 
ATOM     12  CD1 TYR A 143      62.080  18.573  87.024  1.00 55.58    -0.035 A 
ATOM     13  CE1 TYR A 143      62.034  18.161  85.690  1.00 58.22     0.100 A 
ATOM     14  CZ  TYR A 143      62.771  18.846  84.738  1.00 60.58    -0.121 A 
ATOM     15  CE2 TYR A 143      63.550  19.932  85.105  1.00 60.07     0.100 A 
ATOM     16  CD2 TYR A 143      63.585  20.334  86.440  1.00 56.72    -0.035 A 
BRANCH  14  17
ATOM     17  OH  TYR A 143      62.734  18.455  83.416  1.00 63.91    -0.368 OA
ATOM     18  HH  TYR A 143      62.613  19.099  82.729  1.00  0.00     0.339 HD
ENDBRANCH  14  17
ENDBRANCH  10  11
ENDBRANCH   9  10
END_RES TYR A 143
BEGIN_RES LYS A 145
REMARK  5 active torsions:
REMARK  status: ('A' for Active; 'I' for Inactive)
REMARK    8  A    between atoms: CA   and  CB  
REMARK    9  A    between atoms: CB   and  CG  
REMARK   10  A    between atoms: CG   and  CD  
REMARK   11  A    between atoms: CD   and  CE  
REMARK   12  A    between atoms: CE   and  NZ  
ROOT
ATOM     19  CA  LYS A 145      61.782  26.240  90.241  1.00 28.09     0.227 C 
ENDROOT
BRANCH  19  20
ATOM     20  CB  LYS A 145      60.456  25.589  89.829  1.00 28.44     0.039 C 
BRANCH  20  21
ATOM     21  CG  LYS A 145      60.273  25.383  88.335  1.00 31.62     0.053 C 
BRANCH  21  22
ATOM     22  CD  LYS A 145      59.908  23.943  87.993  1.00 34.02     0.048 C 
BRANCH  22  23
ATOM     23  CE  LYS A 145      61.100  23.230  87.368  1.00 33.58     0.218 C 
BRANCH  23  24
ATOM     24  NZ  LYS A 145      60.731  22.467  86.165  1.00 36.75    -0.272 N 
ATOM     25  HZ3 LYS A 145      59.746  22.203  86.184  1.00  0.00     0.311 HD
ATOM     26  HZ2 LYS A 145      60.723  23.064  85.339  1.00  0.00     0.311 HD
ATOM     27  HZ1 LYS A 145      61.327  21.652  86.023  1.00  0.00     0.311 HD
ENDBRANCH  23  24
ENDBRANCH  22  23
ENDBRANCH  21  22
ENDBRANCH  20  21
ENDBRANCH  19  20
END_RES LYS A 145
BEGIN_RES ALA A 279
REMARK  0 active torsions:
REMARK  status: ('A' for Active; 'I' for Inactive)
ROOT
ATOM     28  CA  ALA A 279      58.677  22.867  81.738  1.00 30.95     0.215 C 
ATOM     29  CB  ALA A 279      59.273  21.559  81.198  1.00 29.24     0.031 C 
ENDROOT
END_RES ALA A 279
ENDMDL
MODEL 4
REMARK VINA RESULT:    -4.840      8.933     10.913
REMARK INTER + INTRA:         -14.196
REMARK INTER:                  -7.875
REMARK INTRA:                  -6.321
REMARK UNBOUND:                -7.375
REMARK SMILES C=CCOC(=O)C1=CS[C@H]2[C@@H]([C@@H](C)OC(C)=O)C(=O)N12
REMARK SMILES IDX 9 1 19 2 20 3 11 4 10 5 18 6 7 7 8 8 12 9 13 10 14 11 15 12
REMARK SMILES IDX 17 13 16 14 5 15 6 16 4 17 3 18 2 19 1 20
REMARK H PARENT
REMARK Flexibility Score: inf
ROOT
ATOM      1  S   UNL     1      63.970  22.119  78.484  1.00  0.00    -0.105 SA
ATOM      2  O   UNL     1      66.119  24.303  81.798  1.00  0.00    -0.274 OA
ATOM      3  N   UNL     1      65.323  22.347  80.739  1.00  0.00    -0.291 N 
ATOM      4  C   UNL     1      66.318  23.547  79.361  1.00  0.00     0.153 C 
ATOM      5  C   UNL     1      65.616  22.180  79.303  1.00  0.00     0.169 C 
ATOM      6  C   UNL     1      65.982  23.536  80.872  1.00  0.00     0.238 C 
ATOM      7  C   UNL     1      64.008  22.139  81.056  1.00  0.00     0.137 C 
ATOM      8  C   UNL     1      63.173  21.967  80.025  1.00  0.00     0.077 C 
ENDROOT
BRANCH   4   9
ATOM      9  C   UNL     1      65.639  24.647  78.579  1.00  0.00     0.189 C 
ATOM     10  C   UNL     1      65.991  26.020  79.140  1.00  0.00     0.054 C 
BRANCH   9  11
ATOM     11  O   UNL     1      66.051  24.582  77.213  1.00  0.00    -0.462 OA
BRANCH  11  12
ATOM     12  C   UNL     1      65.398  25.424  76.361  1.00  0.00     0.302 C 
ATOM     13  O   UNL     1      65.897  26.344  75.727  1.00  0.00    -0.253 OA
ATOM     14  C   UNL     1      63.946  25.058  76.304  1.00  0.00     0.139 C 
ENDBRANCH  11  12
ENDBRANCH   9  11
ENDBRANCH   4   9
BRANCH   7  15
ATOM     15  C   UNL     1      63.547  22.187  82.437  1.00  0.00     0.355 C 
ATOM     16  O   UNL     1      62.419  22.530  82.770  1.00  0.00    -0.244 OA
BRANCH  15  17
ATOM     17  O   UNL     1      64.560  21.795  83.256  1.00  0.00    -0.457 OA
BRANCH  17  18
ATOM     18  C   UNL     1      64.176  21.004  84.384  1.00  0.00     0.260 C 
BRANCH  18  19
ATOM     19  C   UNL     1      64.916  19.708  84.337  1.00  0.00     0.006 C 
ATOM     20  C   UNL     1      65.806  19.323  85.258  1.00  0.00     0.007 C 
ENDBRANCH  18  19
ENDBRANCH  17  18
ENDBRANCH  15  17
ENDBRANCH   7  15
TORSDOF 7
BEGIN_RES SER A  90
REMARK  2 active torsions:
REMARK  status: ('A' for Active; 'I' for Inactive)
REMARK    1  A    between atoms: CA   and  CB  
REMARK    2  A    between atoms: CB   and  OG  
ROOT
ATOM      1  CA  SER A  90      64.797  27.426  83.208  1.00 28.94     0.292 C 
ENDROOT
BRANCH   1   2
ATOM      2  CB  SER A  90      64.021  26.161  83.621  1.00 29.63     0.194 C 
BRANCH   2   3
ATOM      3  OG  SER A  90      63.702  25.335  82.515  1.00 30.29    -0.550 OA
ATOM      4  HG  SER A  90      63.082  25.744  81.923  1.00  0.00     0.310 HD
ENDBRANCH   2   3
ENDBRANCH   1   2
END_RES SER A  90
BEGIN_RES SER A  88
REMARK  2 active torsions:
REMARK  status: ('A' for Active; 'I' for Inactive)
REMARK    3  A    between atoms: CA   and  CB  
REMARK    4  A    between atoms: CB   and  OG  
ROOT
ATOM      5  CA  SER A  88      69.162  24.022  82.855  1.00 38.41     0.292 C 
ENDROOT
BRANCH   5   6
ATOM      6  CB  SER A  88      67.754  23.445  82.669  1.00 37.99     0.194 C 
BRANCH   6   7
ATOM      7  OG  SER A  88      67.383  22.625  83.762  1.00 37.76    -0.550 OA
ATOM      8  HG  SER A  88      68.124  22.129  84.091  1.00  0.00     0.310 HD
ENDBRANCH   6   7
ENDBRANCH   5   6
END_RES SER A  88
BEGIN_RES TYR A 143
REMARK  3 active torsions:
REMARK  status: ('A' for Active; 'I' for Inactive)
REMARK    5  A    between atoms: CA   and  CB  
REMARK    6  A    between atoms: CB   and  CG  
REMARK    7  A    between atoms: CZ   and  OH  
ROOT
ATOM      9  CA  TYR A 143      64.264  20.095  89.524  1.00 42.38     0.245 C 
ENDROOT
BRANCH   9  10
ATOM     10  CB  TYR A 143      62.885  20.126  88.852  1.00 47.73     0.022 C 
BRANCH  10  11
ATOM     11  CG  TYR A 143      62.688  19.137  87.729  1.00 52.08    -0.001 A 
ATOM     12  CD1 TYR A 143      61.823  19.407  86.671  1.00 55.58    -0.035 A 
ATOM     13  CE1 TYR A 143      61.659  18.500  85.621  1.00 58.22     0.100 A 
ATOM     14  CZ  TYR A 143      62.367  17.309  85.631  1.00 60.58    -0.121 A 
ATOM     15  CE2 TYR A 143      63.231  17.018  86.675  1.00 60.07     0.100 A 
ATOM     16  CD2 TYR A 143      63.386  17.933  87.715  1.00 56.72    -0.035 A 
BRANCH  14  17
ATOM     17  OH  TYR A 143      62.220  16.405  84.601  1.00 63.91    -0.368 OA
ATOM     18  HH  TYR A 143      61.359  16.218  84.247  1.00  0.00     0.339 HD
ENDBRANCH  14  17
ENDBRANCH  10  11
ENDBRANCH   9  10
END_RES TYR A 143
BEGIN_RES LYS A 145
REMARK  5 active torsions:
REMARK  status: ('A' for Active; 'I' for Inactive)
REMARK    8  A    between atoms: CA   and  CB  
REMARK    9  A    between atoms: CB   and  CG  
REMARK   10  A    between atoms: CG   and  CD  
REMARK   11  A    between atoms: CD   and  CE  
REMARK   12  A    between atoms: CE   and  NZ  
ROOT
ATOM     19  CA  LYS A 145      61.782  26.240  90.241  1.00 28.09     0.227 C 
ENDROOT
BRANCH  19  20
ATOM     20  CB  LYS A 145      60.456  25.589  89.829  1.00 28.44     0.039 C 
BRANCH  20  21
ATOM     21  CG  LYS A 145      60.263  25.405  88.333  1.00 31.62     0.053 C 
BRANCH  21  22
ATOM     22  CD  LYS A 145      59.942  23.959  87.968  1.00 34.02     0.048 C 
BRANCH  22  23
ATOM     23  CE  LYS A 145      61.204  23.235  87.521  1.00 33.58     0.218 C 
BRANCH  23  24
ATOM     24  NZ  LYS A 145      62.016  24.041  86.594  1.00 36.75    -0.272 N 
ATOM     25  HZ3 LYS A 145      62.015  25.025  86.865  1.00  0.00     0.311 HD
ATOM     26  HZ2 LYS A 145      63.009  23.843  86.707  1.00  0.00     0.311 HD
ATOM     27  HZ1 LYS A 145      61.726  23.927  85.623  1.00  0.00     0.311 HD
ENDBRANCH  23  24
ENDBRANCH  22  23
ENDBRANCH  21  22
ENDBRANCH  20  21
ENDBRANCH  19  20
END_RES LYS A 145
BEGIN_RES ALA A 279
REMARK  0 active torsions:
REMARK  status: ('A' for Active; 'I' for Inactive)
ROOT
ATOM     28  CA  ALA A 279      58.677  22.867  81.738  1.00 30.95     0.215 C 
ATOM     29  CB  ALA A 279      59.273  21.559  81.198  1.00 29.24     0.031 C 
ENDROOT
END_RES ALA A 279
ENDMDL
MODEL 5
REMARK VINA RESULT:    -4.741      6.548      9.113
REMARK INTER + INTRA:         -14.056
REMARK INTER:                  -7.497
REMARK INTRA:                  -6.559
REMARK UNBOUND:                -7.375
REMARK SMILES C=CCOC(=O)C1=CS[C@H]2[C@@H]([C@@H](C)OC(C)=O)C(=O)N12
REMARK SMILES IDX 9 1 19 2 20 3 11 4 10 5 18 6 7 7 8 8 12 9 13 10 14 11 15 12
REMARK SMILES IDX 17 13 16 14 5 15 6 16 4 17 3 18 2 19 1 20
REMARK H PARENT
REMARK Flexibility Score: inf
ROOT
ATOM      1  S   UNL     1      64.054  24.429  77.635  1.00  0.00    -0.105 SA
ATOM      2  O   UNL     1      68.286  24.467  79.207  1.00  0.00    -0.274 OA
ATOM      3  N   UNL     1      66.580  25.190  77.741  1.00  0.00    -0.291 N 
ATOM      4  C   UNL     1      65.895  25.236  79.705  1.00  0.00     0.153 C 
ATOM      5  C   UNL     1      65.292  25.595  78.336  1.00  0.00     0.169 C 
ATOM      6  C   UNL     1      67.194  24.909  78.928  1.00  0.00     0.238 C 
ATOM      7  C   UNL     1      66.449  24.312  76.699  1.00  0.00     0.137 C 
ATOM      8  C   UNL     1      65.215  23.843  76.475  1.00  0.00     0.077 C 
ENDROOT
BRANCH   4   9
ATOM      9  C   UNL     1      65.263  24.047  80.388  1.00  0.00     0.189 C 
ATOM     10  C   UNL     1      66.275  22.925  80.592  1.00  0.00     0.054 C 
BRANCH   9  11
ATOM     11  O   UNL     1      64.749  24.447  81.659  1.00  0.00    -0.462 OA
BRANCH  11  12
ATOM     12  C   UNL     1      63.616  23.805  82.065  1.00  0.00     0.302 C 
ATOM     13  O   UNL     1      63.260  23.626  83.222  1.00  0.00    -0.253 OA
ATOM     14  C   UNL     1      62.845  23.337  80.869  1.00  0.00     0.139 C 
ENDBRANCH  11  12
ENDBRANCH   9  11
ENDBRANCH   4   9
BRANCH   7  15
ATOM     15  C   UNL     1      67.606  23.860  75.941  1.00  0.00     0.355 C 
ATOM     16  O   UNL     1      67.840  22.685  75.683  1.00  0.00    -0.244 OA
BRANCH  15  17
ATOM     17  O   UNL     1      68.351  24.940  75.583  1.00  0.00    -0.457 OA
BRANCH  17  18
ATOM     18  C   UNL     1      69.768  24.738  75.561  1.00  0.00     0.260 C 
BRANCH  18  19
ATOM     19  C   UNL     1      70.372  25.446  76.728  1.00  0.00     0.006 C 
ATOM     20  C   UNL     1      71.650  25.837  76.784  1.00  0.00     0.007 C 
ENDBRANCH  18  19
ENDBRANCH  17  18
ENDBRANCH  15  17
ENDBRANCH   7  15
TORSDOF 7
BEGIN_RES SER A  90
REMARK  2 active torsions:
REMARK  status: ('A' for Active; 'I' for Inactive)
REMARK    1  A    between atoms: CA   and  CB  
REMARK    2  A    between atoms: CB   and  OG  
ROOT
ATOM      1  CA  SER A  90      64.797  27.426  83.208  1.00 28.94     0.292 C 
ENDROOT
BRANCH   1   2
ATOM      2  CB  SER A  90      64.021  26.161  83.621  1.00 29.63     0.194 C 
BRANCH   2   3
ATOM      3  OG  SER A  90      64.607  25.504  84.731  1.00 30.29    -0.550 OA
ATOM      4  HG  SER A  90      64.858  26.108  85.420  1.00  0.00     0.310 HD
ENDBRANCH   2   3
ENDBRANCH   1   2
END_RES SER A  90
BEGIN_RES SER A  88
REMARK  2 active torsions:
REMARK  status: ('A' for Active; 'I' for Inactive)
REMARK    3  A    between atoms: CA   and  CB  
REMARK    4  A    between atoms: CB   and  OG  
ROOT
ATOM      5  CA  SER A  88      69.162  24.022  82.855  1.00 38.41     0.292 C 
ENDROOT
BRANCH   5   6
ATOM      6  CB  SER A  88      67.754  23.445  82.669  1.00 37.99     0.194 C 
BRANCH   6   7
ATOM      7  OG  SER A  88      66.849  23.972  83.622  1.00 37.76    -0.550 OA
ATOM      8  HG  SER A  88      67.283  24.575  84.215  1.00  0.00     0.310 HD
ENDBRANCH   6   7
ENDBRANCH   5   6
END_RES SER A  88
BEGIN_RES TYR A 143
REMARK  3 active torsions:
REMARK  status: ('A' for Active; 'I' for Inactive)
REMARK    5  A    between atoms: CA   and  CB  
REMARK    6  A    between atoms: CB   and  CG  
REMARK    7  A    between atoms: CZ   and  OH  
ROOT
ATOM      9  CA  TYR A 143      64.264  20.095  89.524  1.00 42.38     0.245 C 
ENDROOT
BRANCH   9  10
ATOM     10  CB  TYR A 143      62.885  20.126  88.852  1.00 47.73     0.022 C 
BRANCH  10  11
ATOM     11  CG  TYR A 143      62.900  20.229  87.346  1.00 52.08    -0.001 A 
ATOM     12  CD1 TYR A 143      61.719  20.177  86.607  1.00 55.58    -0.035 A 
ATOM     13  CE1 TYR A 143      61.733  20.295  85.215  1.00 58.22     0.100 A 
ATOM     14  CZ  TYR A 143      62.940  20.463  84.555  1.00 60.58    -0.121 A 
ATOM     15  CE2 TYR A 143      64.125  20.514  85.270  1.00 60.07     0.100 A 
ATOM     16  CD2 TYR A 143      64.098  20.397  86.659  1.00 56.72    -0.035 A 
BRANCH  14  17
ATOM     17  OH  TYR A 143      62.970  20.585  83.182  1.00 63.91    -0.368 OA
ATOM     18  HH  TYR A 143      63.466  19.968  82.658  1.00  0.00     0.339 HD
ENDBRANCH  14  17
ENDBRANCH  10  11
ENDBRANCH   9  10
END_RES TYR A 143
BEGIN_RES LYS A 145
REMARK  5 active torsions:
REMARK  status: ('A' for Active; 'I' for Inactive)
REMARK    8  A    between atoms: CA   and  CB  
REMARK    9  A    between atoms: CB   and  CG  
REMARK   10  A    between atoms: CG   and  CD  
REMARK   11  A    between atoms: CD   and  CE  
REMARK   12  A    between atoms: CE   and  NZ  
ROOT
ATOM     19  CA  LYS A 145      61.782  26.240  90.241  1.00 28.09     0.227 C 
ENDROOT
BRANCH  19  20
ATOM     20  CB  LYS A 145      60.456  25.589  89.829  1.00 28.44     0.039 C 
BRANCH  20  21
ATOM     21  CG  LYS A 145      60.277  25.374  88.336  1.00 31.62     0.053 C 
BRANCH  21  22
ATOM     22  CD  LYS A 145      60.589  23.941  87.919  1.00 34.02     0.048 C 
BRANCH  22  23
ATOM     23  CE  LYS A 145      61.012  23.897  86.456  1.00 33.58     0.218 C 
BRANCH  23  24
ATOM     24  NZ  LYS A 145      62.474  23.847  86.296  1.00 36.75    -0.272 N 
ATOM     25  HZ3 LYS A 145      62.873  24.785  86.263  1.00  0.00     0.311 HD
ATOM     26  HZ2 LYS A 145      62.926  23.508  87.145  1.00  0.00     0.311 HD
ATOM     27  HZ1 LYS A 145      62.758  23.299  85.484  1.00  0.00     0.311 HD
ENDBRANCH  23  24
ENDBRANCH  22  23
ENDBRANCH  21  22
ENDBRANCH  20  21
ENDBRANCH  19  20
END_RES LYS A 145
BEGIN_RES ALA A 279
REMARK  0 active torsions:
REMARK  status: ('A' for Active; 'I' for Inactive)
ROOT
ATOM     28  CA  ALA A 279      58.677  22.867  81.738  1.00 30.95     0.215 C 
ATOM     29  CB  ALA A 279      59.273  21.559  81.198  1.00 29.24     0.031 C 
ENDROOT
END_RES ALA A 279
ENDMDL
MODEL 6
REMARK VINA RESULT:    -4.721     11.396     14.341
REMARK INTER + INTRA:         -14.029
REMARK INTER:                  -7.044
REMARK INTRA:                  -6.985
REMARK UNBOUND:                -7.375
REMARK SMILES C=CCOC(=O)C1=CS[C@H]2[C@@H]([C@@H](C)OC(C)=O)C(=O)N12
REMARK SMILES IDX 9 1 19 2 20 3 11 4 10 5 18 6 7 7 8 8 12 9 13 10 14 11 15 12
REMARK SMILES IDX 17 13 16 14 5 15 6 16 4 17 3 18 2 19 1 20
REMARK H PARENT
REMARK Flexibility Score: inf
ROOT
ATOM      1  S   UNL     1      59.515  25.486  74.418  1.00  0.00    -0.105 SA
ATOM      2  O   UNL     1      56.409  28.677  73.683  1.00  0.00    -0.274 OA
ATOM      3  N   UNL     1      57.818  26.914  72.986  1.00  0.00    -0.291 N 
ATOM      4  C   UNL     1      56.780  26.358  74.702  1.00  0.00     0.153 C 
ATOM      5  C   UNL     1      57.800  25.670  73.779  1.00  0.00     0.169 C 
ATOM      6  C   UNL     1      56.872  27.560  73.730  1.00  0.00     0.238 C 
ATOM      7  C   UNL     1      59.078  27.386  72.738  1.00  0.00     0.137 C 
ATOM      8  C   UNL     1      60.079  26.752  73.362  1.00  0.00     0.077 C 
ENDROOT
BRANCH   4   9
ATOM      9  C   UNL     1      57.276  26.647  76.099  1.00  0.00     0.189 C 
ATOM     10  C   UNL     1      56.625  27.902  76.667  1.00  0.00     0.054 C 
BRANCH   9  11
ATOM     11  O   UNL     1      56.974  25.540  76.948  1.00  0.00    -0.462 OA
BRANCH  11  12
ATOM     12  C   UNL     1      57.979  25.145  77.782  1.00  0.00     0.302 C 
ATOM     13  O   UNL     1      58.867  25.855  78.234  1.00  0.00    -0.253 OA
ATOM     14  C   UNL     1      57.844  23.682  78.078  1.00  0.00     0.139 C 
ENDBRANCH  11  12
ENDBRANCH   9  11
ENDBRANCH   4   9
BRANCH   7  15
ATOM     15  C   UNL     1      59.296  28.562  71.908  1.00  0.00     0.355 C 
ATOM     16  O   UNL     1      58.559  28.895  70.987  1.00  0.00    -0.244 OA
BRANCH  15  17
ATOM     17  O   UNL     1      60.422  29.198  72.326  1.00  0.00    -0.457 OA
BRANCH  17  18
ATOM     18  C   UNL     1      60.991  30.129  71.400  1.00  0.00     0.260 C 
BRANCH  18  19
ATOM     19  C   UNL     1      62.472  30.149  71.587  1.00  0.00     0.006 C 
ATOM     20  C   UNL     1      63.306  30.903  70.862  1.00  0.00     0.007 C 
ENDBRANCH  18  19
ENDBRANCH  17  18
ENDBRANCH  15  17
ENDBRANCH   7  15
TORSDOF 7
BEGIN_RES SER A  90
REMARK  2 active torsions:
REMARK  status: ('A' for Active; 'I' for Inactive)
REMARK    1  A    between atoms: CA   and  CB  
REMARK    2  A    between atoms: CB   and  OG  
ROOT
ATOM      1  CA  SER A  90      64.797  27.426  83.208  1.00 28.94     0.292 C 
ENDROOT
BRANCH   1   2
ATOM      2  CB  SER A  90      64.021  26.161  83.621  1.00 29.63     0.194 C 
BRANCH   2   3
ATOM      3  OG  SER A  90      63.982  25.189  82.591  1.00 30.29    -0.550 OA
ATOM      4  HG  SER A  90      63.539  25.502  81.812  1.00  0.00     0.310 HD
ENDBRANCH   2   3
ENDBRANCH   1   2
END_RES SER A  90
BEGIN_RES SER A  88
REMARK  2 active torsions:
REMARK  status: ('A' for Active; 'I' for Inactive)
REMARK    3  A    between atoms: CA   and  CB  
REMARK    4  A    between atoms: CB   and  OG  
ROOT
ATOM      5  CA  SER A  88      69.162  24.022  82.855  1.00 38.41     0.292 C 
ENDROOT
BRANCH   5   6
ATOM      6  CB  SER A  88      67.754  23.445  82.669  1.00 37.99     0.194 C 
BRANCH   6   7
ATOM      7  OG  SER A  88      67.789  22.206  81.986  1.00 37.76    -0.550 OA
ATOM      8  HG  SER A  88      68.673  21.984  81.714  1.00  0.00     0.310 HD
ENDBRANCH   6   7
ENDBRANCH   5   6
END_RES SER A  88
BEGIN_RES TYR A 143
REMARK  3 active torsions:
REMARK  status: ('A' for Active; 'I' for Inactive)
REMARK    5  A    between atoms: CA   and  CB  
REMARK    6  A    between atoms: CB   and  CG  
REMARK    7  A    between atoms: CZ   and  OH  
ROOT
ATOM      9  CA  TYR A 143      64.264  20.095  89.524  1.00 42.38     0.245 C 
ENDROOT
BRANCH   9  10
ATOM     10  CB  TYR A 143      62.885  20.126  88.852  1.00 47.73     0.022 C 
BRANCH  10  11
ATOM     11  CG  TYR A 143      62.846  19.627  87.428  1.00 52.08    -0.001 A 
ATOM     12  CD1 TYR A 143      62.212  18.431  87.099  1.00 55.58    -0.035 A 
ATOM     13  CE1 TYR A 143      62.158  17.982  85.776  1.00 58.22     0.100 A 
ATOM     14  CZ  TYR A 143      62.746  18.737  84.774  1.00 60.58    -0.121 A 
ATOM     15  CE2 TYR A 143      63.384  19.928  85.080  1.00 60.07     0.100 A 
ATOM     16  CD2 TYR A 143      63.429  20.365  86.403  1.00 56.72    -0.035 A 
BRANCH  14  17
ATOM     17  OH  TYR A 143      62.698  18.310  83.464  1.00 63.91    -0.368 OA
ATOM     18  HH  TYR A 143      62.675  17.382  83.263  1.00  0.00     0.339 HD
ENDBRANCH  14  17
ENDBRANCH  10  11
ENDBRANCH   9  10
END_RES TYR A 143
BEGIN_RES LYS A 145
REMARK  5 active torsions:
REMARK  status: ('A' for Active; 'I' for Inactive)
REMARK    8  A    between atoms: CA   and  CB  
REMARK    9  A    between atoms: CB   and  CG  
REMARK   10  A    between atoms: CG   and  CD  
REMARK   11  A    between atoms: CD   and  CE  
REMARK   12  A    between atoms: CE   and  NZ  
ROOT
ATOM     19  CA  LYS A 145      61.782  26.240  90.241  1.00 28.09     0.227 C 
ENDROOT
BRANCH  19  20
ATOM     20  CB  LYS A 145      60.456  25.589  89.829  1.00 28.44     0.039 C 
BRANCH  20  21
ATOM     21  CG  LYS A 145      60.248  25.437  88.332  1.00 31.62     0.053 C 
BRANCH  21  22
ATOM     22  CD  LYS A 145      60.496  24.008  87.859  1.00 34.02     0.048 C 
BRANCH  22  23
ATOM     23  CE  LYS A 145      61.002  24.008  86.423  1.00 33.58     0.218 C 
BRANCH  23  24
ATOM     24  NZ  LYS A 145      61.926  25.122  86.153  1.00 36.75    -0.272 N 
ATOM     25  HZ3 LYS A 145      61.864  25.835  86.880  1.00  0.00     0.311 HD
ATOM     26  HZ2 LYS A 145      62.896  24.836  86.289  1.00  0.00     0.311 HD
ATOM     27  HZ1 LYS A 145      61.788  25.526  85.228  1.00  0.00     0.311 HD
ENDBRANCH  23  24
ENDBRANCH  22  23
ENDBRANCH  21  22
ENDBRANCH  20  21
ENDBRANCH  19  20
END_RES LYS A 145
BEGIN_RES ALA A 279
REMARK  0 active torsions:
REMARK  status: ('A' for Active; 'I' for Inactive)
ROOT
ATOM     28  CA  ALA A 279      58.677  22.867  81.738  1.00 30.95     0.215 C 
ATOM     29  CB  ALA A 279      59.273  21.559  81.198  1.00 29.24     0.031 C 
ENDROOT
END_RES ALA A 279
ENDMDL
MODEL 7
REMARK VINA RESULT:    -4.675      7.529     10.400
REMARK INTER + INTRA:         -13.963
REMARK INTER:                  -7.155
REMARK INTRA:                  -6.808
REMARK UNBOUND:                -7.375
REMARK SMILES C=CCOC(=O)C1=CS[C@H]2[C@@H]([C@@H](C)OC(C)=O)C(=O)N12
REMARK SMILES IDX 9 1 19 2 20 3 11 4 10 5 18 6 7 7 8 8 12 9 13 10 14 11 15 12
REMARK SMILES IDX 17 13 16 14 5 15 6 16 4 17 3 18 2 19 1 20
REMARK H PARENT
REMARK Flexibility Score: inf
ROOT
ATOM      1  S   UNL     1      66.167  25.661  79.198  1.00  0.00    -0.105 SA
ATOM      2  O   UNL     1      64.259  21.921  77.543  1.00  0.00    -0.274 OA
ATOM      3  N   UNL     1      64.208  23.950  78.750  1.00  0.00    -0.291 N 
ATOM      4  C   UNL     1      65.133  24.242  76.910  1.00  0.00     0.153 C 
ATOM      5  C   UNL     1      64.782  25.146  78.104  1.00  0.00     0.169 C 
ATOM      6  C   UNL     1      64.437  23.107  77.701  1.00  0.00     0.238 C 
ATOM      7  C   UNL     1      64.655  23.752  80.028  1.00  0.00     0.137 C 
ATOM      8  C   UNL     1      65.637  24.562  80.442  1.00  0.00     0.077 C 
ENDROOT
BRANCH   4   9
ATOM      9  C   UNL     1      66.611  24.028  76.684  1.00  0.00     0.189 C 
ATOM     10  C   UNL     1      66.870  22.744  75.905  1.00  0.00     0.054 C 
BRANCH   9  11
ATOM     11  O   UNL     1      67.144  25.132  75.952  1.00  0.00    -0.462 OA
BRANCH  11  12
ATOM     12  C   UNL     1      68.485  25.082  75.703  1.00  0.00     0.302 C 
ATOM     13  O   UNL     1      69.016  25.043  74.602  1.00  0.00    -0.253 OA
ATOM     14  C   UNL     1      69.238  25.084  76.998  1.00  0.00     0.139 C 
ENDBRANCH  11  12
ENDBRANCH   9  11
ENDBRANCH   4   9
BRANCH   7  15
ATOM     15  C   UNL     1      64.141  22.665  80.849  1.00  0.00     0.355 C 
ATOM     16  O   UNL     1      64.758  21.632  81.082  1.00  0.00    -0.244 OA
BRANCH  15  17
ATOM     17  O   UNL     1      62.898  22.994  81.293  1.00  0.00    -0.457 OA
BRANCH  17  18
ATOM     18  C   UNL     1      62.831  23.513  82.625  1.00  0.00     0.260 C 
BRANCH  18  19
ATOM     19  C   UNL     1      62.571  22.385  83.567  1.00  0.00     0.006 C 
ATOM     20  C   UNL     1      63.418  22.006  84.531  1.00  0.00     0.007 C 
ENDBRANCH  18  19
ENDBRANCH  17  18
ENDBRANCH  15  17
ENDBRANCH   7  15
TORSDOF 7
BEGIN_RES SER A  90
REMARK  2 active torsions:
REMARK  status: ('A' for Active; 'I' for Inactive)
REMARK    1  A    between atoms: CA   and  CB  
REMARK    2  A    between atoms: CB   and  OG  
ROOT
ATOM      1  CA  SER A  90      64.797  27.426  83.208  1.00 28.94     0.292 C 
ENDROOT
BRANCH   1   2
ATOM      2  CB  SER A  90      64.021  26.161  83.621  1.00 29.63     0.194 C 
BRANCH   2   3
ATOM      3  OG  SER A  90      64.539  25.567  84.798  1.00 30.29    -0.550 OA
ATOM      4  HG  SER A  90      64.398  24.628  84.825  1.00  0.00     0.310 HD
ENDBRANCH   2   3
ENDBRANCH   1   2
END_RES SER A  90
BEGIN_RES SER A  88
REMARK  2 active torsions:
REMARK  status: ('A' for Active; 'I' for Inactive)
REMARK    3  A    between atoms: CA   and  CB  
REMARK    4  A    between atoms: CB   and  OG  
ROOT
ATOM      5  CA  SER A  88      69.162  24.022  82.855  1.00 38.41     0.292 C 
ENDROOT
BRANCH   5   6
ATOM      6  CB  SER A  88      67.754  23.445  82.669  1.00 37.99     0.194 C 
BRANCH   6   7
ATOM      7  OG  SER A  88      67.787  22.219  81.962  1.00 37.76    -0.550 OA
ATOM      8  HG  SER A  88      68.601  22.116  81.483  1.00  0.00     0.310 HD
ENDBRANCH   6   7
ENDBRANCH   5   6
END_RES SER A  88
BEGIN_RES TYR A 143
REMARK  3 active torsions:
REMARK  status: ('A' for Active; 'I' for Inactive)
REMARK    5  A    between atoms: CA   and  CB  
REMARK    6  A    between atoms: CB   and  CG  
REMARK    7  A    between atoms: CZ   and  OH  
ROOT
ATOM      9  CA  TYR A 143      64.264  20.095  89.524  1.00 42.38     0.245 C 
ENDROOT
BRANCH   9  10
ATOM     10  CB  TYR A 143      62.885  20.126  88.852  1.00 47.73     0.022 C 
BRANCH  10  11
ATOM     11  CG  TYR A 143      62.818  19.501  87.480  1.00 52.08    -0.001 A 
ATOM     12  CD1 TYR A 143      61.600  19.311  86.831  1.00 55.58    -0.035 A 
ATOM     13  CE1 TYR A 143      61.541  18.753  85.551  1.00 58.22     0.100 A 
ATOM     14  CZ  TYR A 143      62.714  18.379  84.915  1.00 60.58    -0.121 A 
ATOM     15  CE2 TYR A 143      63.937  18.556  85.543  1.00 60.07     0.100 A 
ATOM     16  CD2 TYR A 143      63.981  19.116  86.820  1.00 56.72    -0.035 A 
BRANCH  14  17
ATOM     17  OH  TYR A 143      62.674  17.831  83.651  1.00 63.91    -0.368 OA
ATOM     18  HH  TYR A 143      62.310  18.325  82.926  1.00  0.00     0.339 HD
ENDBRANCH  14  17
ENDBRANCH  10  11
ENDBRANCH   9  10
END_RES TYR A 143
BEGIN_RES LYS A 145
REMARK  5 active torsions:
REMARK  status: ('A' for Active; 'I' for Inactive)
REMARK    8  A    between atoms: CA   and  CB  
REMARK    9  A    between atoms: CB   and  CG  
REMARK   10  A    between atoms: CG   and  CD  
REMARK   11  A    between atoms: CD   and  CE  
REMARK   12  A    between atoms: CE   and  NZ  
ROOT
ATOM     19  CA  LYS A 145      61.782  26.240  90.241  1.00 28.09     0.227 C 
ENDROOT
BRANCH  19  20
ATOM     20  CB  LYS A 145      60.456  25.589  89.829  1.00 28.44     0.039 C 
BRANCH  20  21
ATOM     21  CG  LYS A 145      60.223  25.489  88.331  1.00 31.62     0.053 C 
BRANCH  21  22
ATOM     22  CD  LYS A 145      60.275  24.047  87.836  1.00 34.02     0.048 C 
BRANCH  22  23
ATOM     23  CE  LYS A 145      61.158  23.946  86.600  1.00 33.58     0.218 C 
BRANCH  23  24
ATOM     24  NZ  LYS A 145      61.833  25.216  86.286  1.00 36.75    -0.272 N 
ATOM     25  HZ3 LYS A 145      61.665  25.492  85.318  1.00  0.00     0.311 HD
ATOM     26  HZ2 LYS A 145      61.382  25.998  86.758  1.00  0.00     0.311 HD
ATOM     27  HZ1 LYS A 145      62.831  25.187  86.492  1.00  0.00     0.311 HD
ENDBRANCH  23  24
ENDBRANCH  22  23
ENDBRANCH  21  22
ENDBRANCH  20  21
ENDBRANCH  19  20
END_RES LYS A 145
BEGIN_RES ALA A 279
REMARK  0 active torsions:
REMARK  status: ('A' for Active; 'I' for Inactive)
ROOT
ATOM     28  CA  ALA A 279      58.677  22.867  81.738  1.00 30.95     0.215 C 
ATOM     29  CB  ALA A 279      59.273  21.559  81.198  1.00 29.24     0.031 C 
ENDROOT
END_RES ALA A 279
ENDMDL
MODEL 8
REMARK VINA RESULT:    -4.667      7.046     10.358
REMARK INTER + INTRA:         -13.952
REMARK INTER:                  -7.510
REMARK INTRA:                  -6.442
REMARK UNBOUND:                -7.375
REMARK SMILES C=CCOC(=O)C1=CS[C@H]2[C@@H]([C@@H](C)OC(C)=O)C(=O)N12
REMARK SMILES IDX 9 1 19 2 20 3 11 4 10 5 18 6 7 7 8 8 12 9 13 10 14 11 15 12
REMARK SMILES IDX 17 13 16 14 5 15 6 16 4 17 3 18 2 19 1 20
REMARK H PARENT
REMARK Flexibility Score: inf
ROOT
ATOM      1  S   UNL     1      65.443  22.020  77.220  1.00  0.00    -0.105 SA
ATOM      2  O   UNL     1      65.982  24.771  80.758  1.00  0.00    -0.274 OA
ATOM      3  N   UNL     1      65.495  22.679  79.776  1.00  0.00    -0.291 N 
ATOM      4  C   UNL     1      67.242  23.458  78.958  1.00  0.00     0.153 C 
ATOM      5  C   UNL     1      66.435  22.163  78.762  1.00  0.00     0.169 C 
ATOM      6  C   UNL     1      66.196  23.821  80.040  1.00  0.00     0.238 C 
ATOM      7  C   UNL     1      64.186  22.636  79.380  1.00  0.00     0.137 C 
ATOM      8  C   UNL     1      63.967  22.283  78.107  1.00  0.00     0.077 C 
ENDROOT
BRANCH   4   9
ATOM      9  C   UNL     1      67.255  24.388  77.767  1.00  0.00     0.189 C 
ATOM     10  C   UNL     1      66.222  25.499  77.924  1.00  0.00     0.054 C 
BRANCH   9  11
ATOM     11  O   UNL     1      68.551  24.972  77.635  1.00  0.00    -0.462 OA
BRANCH  11  12
ATOM     12  C   UNL     1      68.998  25.129  76.355  1.00  0.00     0.302 C 
ATOM     13  O   UNL     1      68.339  24.989  75.335  1.00  0.00    -0.253 OA
ATOM     14  C   UNL     1      70.448  25.508  76.371  1.00  0.00     0.139 C 
ENDBRANCH  11  12
ENDBRANCH   9  11
ENDBRANCH   4   9
BRANCH   7  15
ATOM     15  C   UNL     1      63.111  23.033  80.277  1.00  0.00     0.355 C 
ATOM     16  O   UNL     1      62.091  23.605  79.913  1.00  0.00    -0.244 OA
BRANCH  15  17
ATOM     17  O   UNL     1      63.434  22.665  81.546  1.00  0.00    -0.457 OA
BRANCH  17  18
ATOM     18  C   UNL     1      62.770  21.499  82.043  1.00  0.00     0.260 C 
BRANCH  18  19
ATOM     19  C   UNL     1      62.504  21.682  83.501  1.00  0.00     0.006 C 
ATOM     20  C   UNL     1      63.422  22.094  84.382  1.00  0.00     0.007 C 
ENDBRANCH  18  19
ENDBRANCH  17  18
ENDBRANCH  15  17
ENDBRANCH   7  15
TORSDOF 7
BEGIN_RES SER A  90
REMARK  2 active torsions:
REMARK  status: ('A' for Active; 'I' for Inactive)
REMARK    1  A    between atoms: CA   and  CB  
REMARK    2  A    between atoms: CB   and  OG  
ROOT
ATOM      1  CA  SER A  90      64.797  27.426  83.208  1.00 28.94     0.292 C 
ENDROOT
BRANCH   1   2
ATOM      2  CB  SER A  90      64.021  26.161  83.621  1.00 29.63     0.194 C 
BRANCH   2   3
ATOM      3  OG  SER A  90      64.068  25.149  82.631  1.00 30.29    -0.550 OA
ATOM      4  HG  SER A  90      64.858  25.192  82.104  1.00  0.00     0.310 HD
ENDBRANCH   2   3
ENDBRANCH   1   2
END_RES SER A  90
BEGIN_RES SER A  88
REMARK  2 active torsions:
REMARK  status: ('A' for Active; 'I' for Inactive)
REMARK    3  A    between atoms: CA   and  CB  
REMARK    4  A    between atoms: CB   and  OG  
ROOT
ATOM      5  CA  SER A  88      69.162  24.022  82.855  1.00 38.41     0.292 C 
ENDROOT
BRANCH   5   6
ATOM      6  CB  SER A  88      67.754  23.445  82.669  1.00 37.99     0.194 C 
BRANCH   6   7
ATOM      7  OG  SER A  88      66.822  24.065  83.536  1.00 37.76    -0.550 OA
ATOM      8  HG  SER A  88      66.384  24.794  83.110  1.00  0.00     0.310 HD
ENDBRANCH   6   7
ENDBRANCH   5   6
END_RES SER A  88
BEGIN_RES TYR A 143
REMARK  3 active torsions:
REMARK  status: ('A' for Active; 'I' for Inactive)
REMARK    5  A    between atoms: CA   and  CB  
REMARK    6  A    between atoms: CB   and  CG  
REMARK    7  A    between atoms: CZ   and  OH  
ROOT
ATOM      9  CA  TYR A 143      64.264  20.095  89.524  1.00 42.38     0.245 C 
ENDROOT
BRANCH   9  10
ATOM     10  CB  TYR A 143      62.885  20.126  88.852  1.00 47.73     0.022 C 
BRANCH  10  11
ATOM     11  CG  TYR A 143      62.817  19.494  87.483  1.00 52.08    -0.001 A 
ATOM     12  CD1 TYR A 143      61.594  19.230  86.870  1.00 55.58    -0.035 A 
ATOM     13  CE1 TYR A 143      61.532  18.666  85.593  1.00 58.22     0.100 A 
ATOM     14  CZ  TYR A 143      62.707  18.362  84.923  1.00 60.58    -0.121 A 
ATOM     15  CE2 TYR A 143      63.934  18.614  85.515  1.00 60.07     0.100 A 
ATOM     16  CD2 TYR A 143      63.981  19.179  86.789  1.00 56.72    -0.035 A 
BRANCH  14  17
ATOM     17  OH  TYR A 143      62.664  17.809  83.661  1.00 63.91    -0.368 OA
ATOM     18  HH  TYR A 143      61.864  17.845  83.149  1.00  0.00     0.339 HD
ENDBRANCH  14  17
ENDBRANCH  10  11
ENDBRANCH   9  10
END_RES TYR A 143
BEGIN_RES LYS A 145
REMARK  5 active torsions:
REMARK  status: ('A' for Active; 'I' for Inactive)
REMARK    8  A    between atoms: CA   and  CB  
REMARK    9  A    between atoms: CB   and  CG  
REMARK   10  A    between atoms: CG   and  CD  
REMARK   11  A    between atoms: CD   and  CE  
REMARK   12  A    between atoms: CE   and  NZ  
ROOT
ATOM     19  CA  LYS A 145      61.782  26.240  90.241  1.00 28.09     0.227 C 
ENDROOT
BRANCH  19  20
ATOM     20  CB  LYS A 145      60.456  25.589  89.829  1.00 28.44     0.039 C 
BRANCH  20  21
ATOM     21  CG  LYS A 145      60.261  25.410  88.333  1.00 31.62     0.053 C 
BRANCH  21  22
ATOM     22  CD  LYS A 145      59.943  23.965  87.963  1.00 34.02     0.048 C 
BRANCH  22  23
ATOM     23  CE  LYS A 145      60.919  23.466  86.905  1.00 33.58     0.218 C 
BRANCH  23  24
ATOM     24  NZ  LYS A 145      60.682  24.078  85.588  1.00 36.75    -0.272 N 
ATOM     25  HZ3 LYS A 145      60.592  23.367  84.862  1.00  0.00     0.311 HD
ATOM     26  HZ2 LYS A 145      59.748  24.484  85.534  1.00  0.00     0.311 HD
ATOM     27  HZ1 LYS A 145      61.396  24.764  85.344  1.00  0.00     0.311 HD
ENDBRANCH  23  24
ENDBRANCH  22  23
ENDBRANCH  21  22
ENDBRANCH  20  21
ENDBRANCH  19  20
END_RES LYS A 145
BEGIN_RES ALA A 279
REMARK  0 active torsions:
REMARK  status: ('A' for Active; 'I' for Inactive)
ROOT
ATOM     28  CA  ALA A 279      58.677  22.867  81.738  1.00 30.95     0.215 C 
ATOM     29  CB  ALA A 279      59.273  21.559  81.198  1.00 29.24     0.031 C 
ENDROOT
END_RES ALA A 279
ENDMDL
MODEL 9
REMARK VINA RESULT:    -4.665     11.308     15.045
REMARK INTER + INTRA:         -13.950
REMARK INTER:                  -6.403
REMARK INTRA:                  -7.547
REMARK UNBOUND:                -7.375
REMARK SMILES C=CCOC(=O)C1=CS[C@H]2[C@@H]([C@@H](C)OC(C)=O)C(=O)N12
REMARK SMILES IDX 9 1 19 2 20 3 11 4 10 5 18 6 7 7 8 8 12 9 13 10 14 11 15 12
REMARK SMILES IDX 17 13 16 14 5 15 6 16 4 17 3 18 2 19 1 20
REMARK H PARENT
REMARK Flexibility Score: inf
ROOT
ATOM      1  S   UNL     1      57.691  23.014  78.161  1.00  0.00    -0.105 SA
ATOM      2  O   UNL     1      58.485  26.249  75.114  1.00  0.00    -0.274 OA
ATOM      3  N   UNL     1      57.123  25.130  76.687  1.00  0.00    -0.291 N 
ATOM      4  C   UNL     1      58.999  25.502  77.508  1.00  0.00     0.153 C 
ATOM      5  C   UNL     1      57.701  24.848  78.015  1.00  0.00     0.169 C 
ATOM      6  C   UNL     1      58.223  25.774  76.196  1.00  0.00     0.238 C 
ATOM      7  C   UNL     1      56.529  24.042  76.108  1.00  0.00     0.137 C 
ATOM      8  C   UNL     1      56.686  22.875  76.745  1.00  0.00     0.077 C 
ENDROOT
BRANCH   4   9
ATOM      9  C   UNL     1      60.170  24.561  77.355  1.00  0.00     0.189 C 
ATOM     10  C   UNL     1      61.241  25.157  76.449  1.00  0.00     0.054 C 
BRANCH   9  11
ATOM     11  O   UNL     1      60.739  24.299  78.638  1.00  0.00    -0.462 OA
BRANCH  11  12
ATOM     12  C   UNL     1      61.550  23.204  78.710  1.00  0.00     0.302 C 
ATOM     13  O   UNL     1      61.339  22.111  78.202  1.00  0.00    -0.253 OA
ATOM     14  C   UNL     1      62.769  23.531  79.518  1.00  0.00     0.139 C 
ENDBRANCH  11  12
ENDBRANCH   9  11
ENDBRANCH   4   9
BRANCH   7  15
ATOM     15  C   UNL     1      55.839  24.148  74.830  1.00  0.00     0.355 C 
ATOM     16  O   UNL     1      56.304  23.758  73.766  1.00  0.00    -0.244 OA
BRANCH  15  17
ATOM     17  O   UNL     1      54.628  24.736  75.028  1.00  0.00    -0.457 OA
BRANCH  17  18
ATOM     18  C   UNL     1      54.273  25.758  74.091  1.00  0.00     0.260 C 
BRANCH  18  19
ATOM     19  C   UNL     1      54.925  27.035  74.504  1.00  0.00     0.006 C 
ATOM     20  C   UNL     1      55.693  27.777  73.699  1.00  0.00     0.007 C 
ENDBRANCH  18  19
ENDBRANCH  17  18
ENDBRANCH  15  17
ENDBRANCH   7  15
TORSDOF 7
BEGIN_RES SER A  90
REMARK  2 active torsions:
REMARK  status: ('A' for Active; 'I' for Inactive)
REMARK    1  A    between atoms: CA   and  CB  
REMARK    2  A    between atoms: CB   and  OG  
ROOT
ATOM      1  CA  SER A  90      64.797  27.426  83.208  1.00 28.94     0.292 C 
ENDROOT
BRANCH   1   2
ATOM      2  CB  SER A  90      64.021  26.161  83.621  1.00 29.63     0.194 C 
BRANCH   2   3
ATOM      3  OG  SER A  90      64.076  25.145  82.635  1.00 30.29    -0.550 OA
ATOM      4  HG  SER A  90      63.217  24.803  82.417  1.00  0.00     0.310 HD
ENDBRANCH   2   3
ENDBRANCH   1   2
END_RES SER A  90
BEGIN_RES SER A  88
REMARK  2 active torsions:
REMARK  status: ('A' for Active; 'I' for Inactive)
REMARK    3  A    between atoms: CA   and  CB  
REMARK    4  A    between atoms: CB   and  OG  
ROOT
ATOM      5  CA  SER A  88      69.162  24.022  82.855  1.00 38.41     0.292 C 
ENDROOT
BRANCH   5   6
ATOM      6  CB  SER A  88      67.754  23.445  82.669  1.00 37.99     0.194 C 
BRANCH   6   7
ATOM      7  OG  SER A  88      66.833  24.027  83.573  1.00 37.76    -0.550 OA
ATOM      8  HG  SER A  88      67.260  24.295  84.379  1.00  0.00     0.310 HD
ENDBRANCH   6   7
ENDBRANCH   5   6
END_RES SER A  88
BEGIN_RES TYR A 143
REMARK  3 active torsions:
REMARK  status: ('A' for Active; 'I' for Inactive)
REMARK    5  A    between atoms: CA   and  CB  
REMARK    6  A    between atoms: CB   and  CG  
REMARK    7  A    between atoms: CZ   and  OH  
ROOT
ATOM      9  CA  TYR A 143      64.264  20.095  89.524  1.00 42.38     0.245 C 
ENDROOT
BRANCH   9  10
ATOM     10  CB  TYR A 143      62.885  20.126  88.852  1.00 47.73     0.022 C 
BRANCH  10  11
ATOM     11  CG  TYR A 143      62.844  19.614  87.432  1.00 52.08    -0.001 A 
ATOM     12  CD1 TYR A 143      61.670  19.104  86.883  1.00 55.58    -0.035 A 
ATOM     13  CE1 TYR A 143      61.627  18.651  85.561  1.00 58.22     0.100 A 
ATOM     14  CZ  TYR A 143      62.772  18.708  84.783  1.00 60.58    -0.121 A 
ATOM     15  CE2 TYR A 143      63.952  19.210  85.311  1.00 60.07     0.100 A 
ATOM     16  CD2 TYR A 143      63.979  19.659  86.630  1.00 56.72    -0.035 A 
BRANCH  14  17
ATOM     17  OH  TYR A 143      62.747  18.270  83.476  1.00 63.91    -0.368 OA
ATOM     18  HH  TYR A 143      62.217  17.520  83.233  1.00  0.00     0.339 HD
ENDBRANCH  14  17
ENDBRANCH  10  11
ENDBRANCH   9  10
END_RES TYR A 143
BEGIN_RES LYS A 145
REMARK  5 active torsions:
REMARK  status: ('A' for Active; 'I' for Inactive)
REMARK    8  A    between atoms: CA   and  CB  
REMARK    9  A    between atoms: CB   and  CG  
REMARK   10  A    between atoms: CG   and  CD  
REMARK   11  A    between atoms: CD   and  CE  
REMARK   12  A    between atoms: CE   and  NZ  
ROOT
ATOM     19  CA  LYS A 145      61.782  26.240  90.241  1.00 28.09     0.227 C 
ENDROOT
BRANCH  19  20
ATOM     20  CB  LYS A 145      60.456  25.589  89.829  1.00 28.44     0.039 C 
BRANCH  20  21
ATOM     21  CG  LYS A 145      60.261  25.410  88.333  1.00 31.62     0.053 C 
BRANCH  21  22
ATOM     22  CD  LYS A 145      60.491  23.969  87.891  1.00 34.02     0.048 C 
BRANCH  22  23
ATOM     23  CE  LYS A 145      61.021  23.934  86.463  1.00 33.58     0.218 C 
BRANCH  23  24
ATOM     24  NZ  LYS A 145      61.905  25.072  86.164  1.00 36.75    -0.272 N 
ATOM     25  HZ3 LYS A 145      62.543  24.852  85.399  1.00  0.00     0.311 HD
ATOM     26  HZ2 LYS A 145      61.387  25.836  85.729  1.00  0.00     0.311 HD
ATOM     27  HZ1 LYS A 145      62.415  25.395  86.986  1.00  0.00     0.311 HD
ENDBRANCH  23  24
ENDBRANCH  22  23
ENDBRANCH  21  22
ENDBRANCH  20  21
ENDBRANCH  19  20
END_RES LYS A 145
BEGIN_RES ALA A 279
REMARK  0 active torsions:
REMARK  status: ('A' for Active; 'I' for Inactive)
ROOT
ATOM     28  CA  ALA A 279      58.677  22.867  81.738  1.00 30.95     0.215 C 
ATOM     29  CB  ALA A 279      59.273  21.559  81.198  1.00 29.24     0.031 C 
ENDROOT
END_RES ALA A 279
ENDMDL
MODEL 10
REMARK VINA RESULT:    -4.656      7.626      9.668
REMARK INTER + INTRA:         -13.936
REMARK INTER:                  -7.036
REMARK INTRA:                  -6.900
REMARK UNBOUND:                -7.375
REMARK SMILES C=CCOC(=O)C1=CS[C@H]2[C@@H]([C@@H](C)OC(C)=O)C(=O)N12
REMARK SMILES IDX 9 1 19 2 20 3 11 4 10 5 18 6 7 7 8 8 12 9 13 10 14 11 15 12
REMARK SMILES IDX 17 13 16 14 5 15 6 16 4 17 3 18 2 19 1 20
REMARK H PARENT
REMARK Flexibility Score: inf
ROOT
ATOM      1  S   UNL     1      67.170  21.965  77.370  1.00  0.00    -0.105 SA
ATOM      2  O   UNL     1      66.156  25.926  79.284  1.00  0.00    -0.274 OA
ATOM      3  N   UNL     1      66.972  23.710  79.341  1.00  0.00    -0.291 N 
ATOM      4  C   UNL     1      67.838  24.745  77.757  1.00  0.00     0.153 C 
ATOM      5  C   UNL     1      67.967  23.320  78.324  1.00  0.00     0.169 C 
ATOM      6  C   UNL     1      66.855  25.006  78.925  1.00  0.00     0.238 C 
ATOM      7  C   UNL     1      65.934  22.826  79.456  1.00  0.00     0.137 C 
ATOM      8  C   UNL     1      65.893  21.843  78.549  1.00  0.00     0.077 C 
ENDROOT
BRANCH   4   9
ATOM      9  C   UNL     1      67.213  24.832  76.386  1.00  0.00     0.189 C 
ATOM     10  C   UNL     1      65.929  25.655  76.416  1.00  0.00     0.054 C 
BRANCH   9  11
ATOM     11  O   UNL     1      68.135  25.440  75.481  1.00  0.00    -0.462 OA
BRANCH  11  12
ATOM     12  C   UNL     1      69.249  24.707  75.194  1.00  0.00     0.302 C 
ATOM     13  O   UNL     1      70.393  24.960  75.545  1.00  0.00    -0.253 OA
ATOM     14  C   UNL     1      68.870  23.515  74.368  1.00  0.00     0.139 C 
ENDBRANCH  11  12
ENDBRANCH   9  11
ENDBRANCH   4   9
BRANCH   7  15
ATOM     15  C   UNL     1      64.895  23.006  80.461  1.00  0.00     0.355 C 
ATOM     16  O   UNL     1      64.943  22.528  81.588  1.00  0.00    -0.244 OA
BRANCH  15  17
ATOM     17  O   UNL     1      63.902  23.775  79.939  1.00  0.00    -0.457 OA
BRANCH  17  18
ATOM     18  C   UNL     1      62.614  23.156  79.861  1.00  0.00     0.260 C 
BRANCH  18  19
ATOM     19  C   UNL     1      61.877  23.725  78.694  1.00  0.00     0.006 C 
ATOM     20  C   UNL     1      62.471  24.318  77.653  1.00  0.00     0.007 C 
ENDBRANCH  18  19
ENDBRANCH  17  18
ENDBRANCH  15  17
ENDBRANCH   7  15
TORSDOF 7
BEGIN_RES SER A  90
REMARK  2 active torsions:
REMARK  status: ('A' for Active; 'I' for Inactive)
REMARK    1  A    between atoms: CA   and  CB  
REMARK    2  A    between atoms: CB   and  OG  
ROOT
ATOM      1  CA  SER A  90      64.797  27.426  83.208  1.00 28.94     0.292 C 
ENDROOT
BRANCH   1   2
ATOM      2  CB  SER A  90      64.021  26.161  83.621  1.00 29.63     0.194 C 
BRANCH   2   3
ATOM      3  OG  SER A  90      63.852  25.254  82.546  1.00 30.29    -0.550 OA
ATOM      4  HG  SER A  90      63.297  24.517  82.775  1.00  0.00     0.310 HD
ENDBRANCH   2   3
ENDBRANCH   1   2
END_RES SER A  90
BEGIN_RES SER A  88
REMARK  2 active torsions:
REMARK  status: ('A' for Active; 'I' for Inactive)
REMARK    3  A    between atoms: CA   and  CB  
REMARK    4  A    between atoms: CB   and  OG  
ROOT
ATOM      5  CA  SER A  88      69.162  24.022  82.855  1.00 38.41     0.292 C 
ENDROOT
BRANCH   5   6
ATOM      6  CB  SER A  88      67.754  23.445  82.669  1.00 37.99     0.194 C 
BRANCH   6   7
ATOM      7  OG  SER A  88      67.799  22.070  82.335  1.00 37.76    -0.550 OA
ATOM      8  HG  SER A  88      68.655  21.820  82.007  1.00  0.00     0.310 HD
ENDBRANCH   6   7
ENDBRANCH   5   6
END_RES SER A  88
BEGIN_RES TYR A 143
REMARK  3 active torsions:
REMARK  status: ('A' for Active; 'I' for Inactive)
REMARK    5  A    between atoms: CA   and  CB  
REMARK    6  A    between atoms: CB   and  CG  
REMARK    7  A    between atoms: CZ   and  OH  
ROOT
ATOM      9  CA  TYR A 143      64.264  20.095  89.524  1.00 42.38     0.245 C 
ENDROOT
BRANCH   9  10
ATOM     10  CB  TYR A 143      62.885  20.126  88.852  1.00 47.73     0.022 C 
BRANCH  10  11
ATOM     11  CG  TYR A 143      62.890  20.438  87.375  1.00 52.08    -0.001 A 
ATOM     12  CD1 TYR A 143      61.771  20.194  86.582  1.00 55.58    -0.035 A 
ATOM     13  CE1 TYR A 143      61.770  20.504  85.219  1.00 58.22     0.100 A 
ATOM     14  CZ  TYR A 143      62.901  21.062  84.645  1.00 60.58    -0.121 A 
ATOM     15  CE2 TYR A 143      64.026  21.310  85.415  1.00 60.07     0.100 A 
ATOM     16  CD2 TYR A 143      64.013  20.998  86.774  1.00 56.72    -0.035 A 
BRANCH  14  17
ATOM     17  OH  TYR A 143      62.915  21.378  83.303  1.00 63.91    -0.368 OA
ATOM     18  HH  TYR A 143      63.694  21.223  82.782  1.00  0.00     0.339 HD
ENDBRANCH  14  17
ENDBRANCH  10  11
ENDBRANCH   9  10
END_RES TYR A 143
BEGIN_RES LYS A 145
REMARK  5 active torsions:
REMARK  status: ('A' for Active; 'I' for Inactive)
REMARK    8  A    between atoms: CA   and  CB  
REMARK    9  A    between atoms: CB   and  CG  
REMARK   10  A    between atoms: CG   and  CD  
REMARK   11  A    between atoms: CD   and  CE  
REMARK   12  A    between atoms: CE   and  NZ  
ROOT
ATOM     19  CA  LYS A 145      61.782  26.240  90.241  1.00 28.09     0.227 C 
ENDROOT
BRANCH  19  20
ATOM     20  CB  LYS A 145      60.456  25.589  89.829  1.00 28.44     0.039 C 
BRANCH  20  21
ATOM     21  CG  LYS A 145      60.230  25.473  88.331  1.00 31.62     0.053 C 
BRANCH  21  22
ATOM     22  CD  LYS A 145      60.375  24.038  87.836  1.00 34.02     0.048 C 
BRANCH  22  23
ATOM     23  CE  LYS A 145      61.397  23.969  86.710  1.00 33.58     0.218 C 
BRANCH  23  24
ATOM     24  NZ  LYS A 145      60.772  24.043  85.379  1.00 36.75    -0.272 N 
ATOM     25  HZ3 LYS A 145      60.168  24.861  85.301  1.00  0.00     0.311 HD
ATOM     26  HZ2 LYS A 145      61.458  24.278  84.663  1.00  0.00     0.311 HD
ATOM     27  HZ1 LYS A 145      60.267  23.190  85.138  1.00  0.00     0.311 HD
ENDBRANCH  23  24
ENDBRANCH  22  23
ENDBRANCH  21  22
ENDBRANCH  20  21
ENDBRANCH  19  20
END_RES LYS A 145
BEGIN_RES ALA A 279
REMARK  0 active torsions:
REMARK  status: ('A' for Active; 'I' for Inactive)
ROOT
ATOM     28  CA  ALA A 279      58.677  22.867  81.738  1.00 30.95     0.215 C 
ATOM     29  CB  ALA A 279      59.273  21.559  81.198  1.00 29.24     0.031 C 
ENDROOT
END_RES ALA A 279
ENDMDL
MODEL 11
REMARK VINA RESULT:    -4.651     10.175     11.781
REMARK INTER + INTRA:         -13.929
REMARK INTER:                  -6.965
REMARK INTRA:                  -6.964
REMARK UNBOUND:                -7.375
REMARK SMILES C=CCOC(=O)C1=CS[C@H]2[C@@H]([C@@H](C)OC(C)=O)C(=O)N12
REMARK SMILES IDX 9 1 19 2 20 3 11 4 10 5 18 6 7 7 8 8 12 9 13 10 14 11 15 12
REMARK SMILES IDX 17 13 16 14 5 15 6 16 4 17 3 18 2 19 1 20
REMARK H PARENT
REMARK Flexibility Score: inf
ROOT
ATOM      1  S   UNL     1      62.399  21.685  83.437  1.00  0.00    -0.105 SA
ATOM      2  O   UNL     1      66.433  19.812  82.669  1.00  0.00    -0.274 OA
ATOM      3  N   UNL     1      64.378  19.980  83.821  1.00  0.00    -0.291 N 
ATOM      4  C   UNL     1      64.045  20.005  81.767  1.00  0.00     0.153 C 
ATOM      5  C   UNL     1      63.145  20.059  83.013  1.00  0.00     0.169 C 
ATOM      6  C   UNL     1      65.227  19.869  82.757  1.00  0.00     0.238 C 
ATOM      7  C   UNL     1      64.457  20.941  84.791  1.00  0.00     0.137 C 
ATOM      8  C   UNL     1      63.503  21.881  84.770  1.00  0.00     0.077 C 
ENDROOT
BRANCH   4   9
ATOM      9  C   UNL     1      64.067  21.269  80.941  1.00  0.00     0.189 C 
ATOM     10  C   UNL     1      65.241  21.273  79.968  1.00  0.00     0.054 C 
BRANCH   9  11
ATOM     11  O   UNL     1      62.849  21.375  80.202  1.00  0.00    -0.462 OA
BRANCH  11  12
ATOM     12  C   UNL     1      62.523  22.631  79.780  1.00  0.00     0.302 C 
ATOM     13  O   UNL     1      62.521  23.647  80.462  1.00  0.00    -0.253 OA
ATOM     14  C   UNL     1      62.159  22.597  78.327  1.00  0.00     0.139 C 
ENDBRANCH  11  12
ENDBRANCH   9  11
ENDBRANCH   4   9
BRANCH   7  15
ATOM     15  C   UNL     1      65.566  20.974  85.734  1.00  0.00     0.355 C 
ATOM     16  O   UNL     1      66.278  20.010  85.987  1.00  0.00    -0.244 OA
BRANCH  15  17
ATOM     17  O   UNL     1      65.663  22.225  86.260  1.00  0.00    -0.457 OA
BRANCH  17  18
ATOM     18  C   UNL     1      66.915  22.888  86.059  1.00  0.00     0.260 C 
BRANCH  18  19
ATOM     19  C   UNL     1      66.652  24.266  85.549  1.00  0.00     0.006 C 
ATOM     20  C   UNL     1      65.531  24.952  85.795  1.00  0.00     0.007 C 
ENDBRANCH  18  19
ENDBRANCH  17  18
ENDBRANCH  15  17
ENDBRANCH   7  15
TORSDOF 7
BEGIN_RES SER A  90
REMARK  2 active torsions:
REMARK  status: ('A' for Active; 'I' for Inactive)
REMARK    1  A    between atoms: CA   and  CB  
REMARK    2  A    between atoms: CB   and  OG  
ROOT
ATOM      1  CA  SER A  90      64.797  27.426  83.208  1.00 28.94     0.292 C 
ENDROOT
BRANCH   1   2
ATOM      2  CB  SER A  90      64.021  26.161  83.621  1.00 29.63     0.194 C 
BRANCH   2   3
ATOM      3  OG  SER A  90      63.978  25.190  82.590  1.00 30.29    -0.550 OA
ATOM      4  HG  SER A  90      63.270  24.568  82.706  1.00  0.00     0.310 HD
ENDBRANCH   2   3
ENDBRANCH   1   2
END_RES SER A  90
BEGIN_RES SER A  88
REMARK  2 active torsions:
REMARK  status: ('A' for Active; 'I' for Inactive)
REMARK    3  A    between atoms: CA   and  CB  
REMARK    4  A    between atoms: CB   and  OG  
ROOT
ATOM      5  CA  SER A  88      69.162  24.022  82.855  1.00 38.41     0.292 C 
ENDROOT
BRANCH   5   6
ATOM      6  CB  SER A  88      67.754  23.445  82.669  1.00 37.99     0.194 C 
BRANCH   6   7
ATOM      7  OG  SER A  88      67.792  22.187  82.021  1.00 37.76    -0.550 OA
ATOM      8  HG  SER A  88      68.243  21.538  82.549  1.00  0.00     0.310 HD
ENDBRANCH   6   7
ENDBRANCH   5   6
END_RES SER A  88
BEGIN_RES TYR A 143
REMARK  3 active torsions:
REMARK  status: ('A' for Active; 'I' for Inactive)
REMARK    5  A    between atoms: CA   and  CB  
REMARK    6  A    between atoms: CB   and  CG  
REMARK    7  A    between atoms: CZ   and  OH  
ROOT
ATOM      9  CA  TYR A 143      64.264  20.095  89.524  1.00 42.38     0.245 C 
ENDROOT
BRANCH   9  10
ATOM     10  CB  TYR A 143      62.885  20.126  88.852  1.00 47.73     0.022 C 
BRANCH  10  11
ATOM     11  CG  TYR A 143      62.709  19.181  87.688  1.00 52.08    -0.001 A 
ATOM     12  CD1 TYR A 143      61.648  19.322  86.797  1.00 55.58    -0.035 A 
ATOM     13  CE1 TYR A 143      61.499  18.460  85.707  1.00 58.22     0.100 A 
ATOM     14  CZ  TYR A 143      62.421  17.445  85.509  1.00 60.58    -0.121 A 
ATOM     15  CE2 TYR A 143      63.483  17.285  86.385  1.00 60.07     0.100 A 
ATOM     16  CD2 TYR A 143      63.620  18.153  87.467  1.00 56.72    -0.035 A 
BRANCH  14  17
ATOM     17  OH  TYR A 143      62.292  16.589  84.436  1.00 63.91    -0.368 OA
ATOM     18  HH  TYR A 143      61.452  16.486  84.005  1.00  0.00     0.339 HD
ENDBRANCH  14  17
ENDBRANCH  10  11
ENDBRANCH   9  10
END_RES TYR A 143
BEGIN_RES LYS A 145
REMARK  5 active torsions:
REMARK  status: ('A' for Active; 'I' for Inactive)
REMARK    8  A    between atoms: CA   and  CB  
REMARK    9  A    between atoms: CB   and  CG  
REMARK   10  A    between atoms: CG   and  CD  
REMARK   11  A    between atoms: CD   and  CE  
REMARK   12  A    between atoms: CE   and  NZ  
ROOT
ATOM     19  CA  LYS A 145      61.782  26.240  90.241  1.00 28.09     0.227 C 
ENDROOT
BRANCH  19  20
ATOM     20  CB  LYS A 145      60.456  25.589  89.829  1.00 28.44     0.039 C 
BRANCH  20  21
ATOM     21  CG  LYS A 145      60.259  25.413  88.333  1.00 31.62     0.053 C 
BRANCH  21  22
ATOM     22  CD  LYS A 145      59.916  23.974  87.963  1.00 34.02     0.048 C 
BRANCH  22  23
ATOM     23  CE  LYS A 145      60.895  23.449  86.921  1.00 33.58     0.218 C 
BRANCH  23  24
ATOM     24  NZ  LYS A 145      60.680  24.051  85.595  1.00 36.75    -0.272 N 
ATOM     25  HZ3 LYS A 145      59.814  23.715  85.174  1.00  0.00     0.311 HD
ATOM     26  HZ2 LYS A 145      60.449  25.041  85.674  1.00  0.00     0.311 HD
ATOM     27  HZ1 LYS A 145      61.473  23.908  84.970  1.00  0.00     0.311 HD
ENDBRANCH  23  24
ENDBRANCH  22  23
ENDBRANCH  21  22
ENDBRANCH  20  21
ENDBRANCH  19  20
END_RES LYS A 145
BEGIN_RES ALA A 279
REMARK  0 active torsions:
REMARK  status: ('A' for Active; 'I' for Inactive)
ROOT
ATOM     28  CA  ALA A 279      58.677  22.867  81.738  1.00 30.95     0.215 C 
ATOM     29  CB  ALA A 279      59.273  21.559  81.198  1.00 29.24     0.031 C 
ENDROOT
END_RES ALA A 279
ENDMDL
MODEL 12
REMARK VINA RESULT:    -4.610     11.741     15.078
REMARK INTER + INTRA:         -13.872
REMARK INTER:                  -6.314
REMARK INTRA:                  -7.558
REMARK UNBOUND:                -7.375
REMARK SMILES C=CCOC(=O)C1=CS[C@H]2[C@@H]([C@@H](C)OC(C)=O)C(=O)N12
REMARK SMILES IDX 9 1 19 2 20 3 11 4 10 5 18 6 7 7 8 8 12 9 13 10 14 11 15 12
REMARK SMILES IDX 17 13 16 14 5 15 6 16 4 17 3 18 2 19 1 20
REMARK H PARENT
REMARK Flexibility Score: inf
ROOT
ATOM      1  S   UNL     1      57.336  28.905  74.457  1.00  0.00    -0.105 SA
ATOM      2  O   UNL     1      58.330  24.717  73.098  1.00  0.00    -0.274 OA
ATOM      3  N   UNL     1      56.822  26.473  73.568  1.00  0.00    -0.291 N 
ATOM      4  C   UNL     1      58.392  27.179  72.400  1.00  0.00     0.153 C 
ATOM      5  C   UNL     1      57.120  27.802  73.001  1.00  0.00     0.169 C 
ATOM      6  C   UNL     1      57.901  25.845  73.014  1.00  0.00     0.238 C 
ATOM      7  C   UNL     1      56.533  26.502  74.906  1.00  0.00     0.137 C 
ATOM      8  C   UNL     1      56.706  27.678  75.521  1.00  0.00     0.077 C 
ENDROOT
BRANCH   4   9
ATOM      9  C   UNL     1      59.689  27.692  72.979  1.00  0.00     0.189 C 
ATOM     10  C   UNL     1      60.795  26.649  72.864  1.00  0.00     0.054 C 
BRANCH   9  11
ATOM     11  O   UNL     1      60.087  28.872  72.282  1.00  0.00    -0.462 OA
BRANCH  11  12
ATOM     12  C   UNL     1      61.032  29.635  72.905  1.00  0.00     0.302 C 
ATOM     13  O   UNL     1      61.031  29.972  74.081  1.00  0.00    -0.253 OA
ATOM     14  C   UNL     1      62.102  30.012  71.926  1.00  0.00     0.139 C 
ENDBRANCH  11  12
ENDBRANCH   9  11
ENDBRANCH   4   9
BRANCH   7  15
ATOM     15  C   UNL     1      56.140  25.296  75.621  1.00  0.00     0.355 C 
ATOM     16  O   UNL     1      55.243  24.546  75.256  1.00  0.00    -0.244 OA
BRANCH  15  17
ATOM     17  O   UNL     1      56.923  25.162  76.725  1.00  0.00    -0.457 OA
BRANCH  17  18
ATOM     18  C   UNL     1      57.789  24.023  76.737  1.00  0.00     0.260 C 
BRANCH  18  19
ATOM     19  C   UNL     1      57.329  23.080  77.799  1.00  0.00     0.006 C 
ATOM     20  C   UNL     1      56.502  22.052  77.578  1.00  0.00     0.007 C 
ENDBRANCH  18  19
ENDBRANCH  17  18
ENDBRANCH  15  17
ENDBRANCH   7  15
TORSDOF 7
BEGIN_RES SER A  90
REMARK  2 active torsions:
REMARK  status: ('A' for Active; 'I' for Inactive)
REMARK    1  A    between atoms: CA   and  CB  
REMARK    2  A    between atoms: CB   and  OG  
ROOT
ATOM      1  CA  SER A  90      64.797  27.426  83.208  1.00 28.94     0.292 C 
ENDROOT
BRANCH   1   2
ATOM      2  CB  SER A  90      64.021  26.161  83.621  1.00 29.63     0.194 C 
BRANCH   2   3
ATOM      3  OG  SER A  90      64.042  25.161  82.618  1.00 30.29    -0.550 OA
ATOM      4  HG  SER A  90      63.547  24.388  82.865  1.00  0.00     0.310 HD
ENDBRANCH   2   3
ENDBRANCH   1   2
END_RES SER A  90
BEGIN_RES SER A  88
REMARK  2 active torsions:
REMARK  status: ('A' for Active; 'I' for Inactive)
REMARK    3  A    between atoms: CA   and  CB  
REMARK    4  A    between atoms: CB   and  OG  
ROOT
ATOM      5  CA  SER A  88      69.162  24.022  82.855  1.00 38.41     0.292 C 
ENDROOT
BRANCH   5   6
ATOM      6  CB  SER A  88      67.754  23.445  82.669  1.00 37.99     0.194 C 
BRANCH   6   7
ATOM      7  OG  SER A  88      66.817  24.087  83.514  1.00 37.76    -0.550 OA
ATOM      8  HG  SER A  88      67.145  24.162  84.403  1.00  0.00     0.310 HD
ENDBRANCH   6   7
ENDBRANCH   5   6
END_RES SER A  88
BEGIN_RES TYR A 143
REMARK  3 active torsions:
REMARK  status: ('A' for Active; 'I' for Inactive)
REMARK    5  A    between atoms: CA   and  CB  
REMARK    6  A    between atoms: CB   and  CG  
REMARK    7  A    between atoms: CZ   and  OH  
ROOT
ATOM      9  CA  TYR A 143      64.264  20.095  89.524  1.00 42.38     0.245 C 
ENDROOT
BRANCH   9  10
ATOM     10  CB  TYR A 143      62.885  20.126  88.852  1.00 47.73     0.022 C 
BRANCH  10  11
ATOM     11  CG  TYR A 143      62.852  19.657  87.418  1.00 52.08    -0.001 A 
ATOM     12  CD1 TYR A 143      62.160  18.505  87.051  1.00 55.58    -0.035 A 
ATOM     13  CE1 TYR A 143      62.111  18.084  85.719  1.00 58.22     0.100 A 
ATOM     14  CZ  TYR A 143      62.764  18.823  84.745  1.00 60.58    -0.121 A 
ATOM     15  CE2 TYR A 143      63.461  19.970  85.089  1.00 60.07     0.100 A 
ATOM     16  CD2 TYR A 143      63.499  20.380  86.421  1.00 56.72    -0.035 A 
BRANCH  14  17
ATOM     17  OH  TYR A 143      62.723  18.424  83.426  1.00 63.91    -0.368 OA
ATOM     18  HH  TYR A 143      62.874  17.515  83.196  1.00  0.00     0.339 HD
ENDBRANCH  14  17
ENDBRANCH  10  11
ENDBRANCH   9  10
END_RES TYR A 143
BEGIN_RES LYS A 145
REMARK  5 active torsions:
REMARK  status: ('A' for Active; 'I' for Inactive)
REMARK    8  A    between atoms: CA   and  CB  
REMARK    9  A    between atoms: CB   and  CG  
REMARK   10  A    between atoms: CG   and  CD  
REMARK   11  A    between atoms: CD   and  CE  
REMARK   12  A    between atoms: CE   and  NZ  
ROOT
ATOM     19  CA  LYS A 145      61.782  26.240  90.241  1.00 28.09     0.227 C 
ENDROOT
BRANCH  19  20
ATOM     20  CB  LYS A 145      60.456  25.589  89.829  1.00 28.44     0.039 C 
BRANCH  20  21
ATOM     21  CG  LYS A 145      60.263  25.404  88.333  1.00 31.62     0.053 C 
BRANCH  21  22
ATOM     22  CD  LYS A 145      60.141  23.934  87.946  1.00 34.02     0.048 C 
BRANCH  22  23
ATOM     23  CE  LYS A 145      61.157  23.588  86.865  1.00 33.58     0.218 C 
BRANCH  23  24
ATOM     24  NZ  LYS A 145      60.740  24.055  85.533  1.00 36.75    -0.272 N 
ATOM     25  HZ3 LYS A 145      61.255  23.572  84.796  1.00  0.00     0.311 HD
ATOM     26  HZ2 LYS A 145      59.798  23.735  85.309  1.00  0.00     0.311 HD
ATOM     27  HZ1 LYS A 145      60.818  25.067  85.433  1.00  0.00     0.311 HD
ENDBRANCH  23  24
ENDBRANCH  22  23
ENDBRANCH  21  22
ENDBRANCH  20  21
ENDBRANCH  19  20
END_RES LYS A 145
BEGIN_RES ALA A 279
REMARK  0 active torsions:
REMARK  status: ('A' for Active; 'I' for Inactive)
ROOT
ATOM     28  CA  ALA A 279      58.677  22.867  81.738  1.00 30.95     0.215 C 
ATOM     29  CB  ALA A 279      59.273  21.559  81.198  1.00 29.24     0.031 C 
ENDROOT
END_RES ALA A 279
ENDMDL
MODEL 13
REMARK VINA RESULT:    -4.601     11.466     14.850
REMARK INTER + INTRA:         -13.859
REMARK INTER:                  -6.738
REMARK INTRA:                  -7.121
REMARK UNBOUND:                -7.375
REMARK SMILES C=CCOC(=O)C1=CS[C@H]2[C@@H]([C@@H](C)OC(C)=O)C(=O)N12
REMARK SMILES IDX 9 1 19 2 20 3 11 4 10 5 18 6 7 7 8 8 12 9 13 10 14 11 15 12
REMARK SMILES IDX 17 13 16 14 5 15 6 16 4 17 3 18 2 19 1 20
REMARK H PARENT
REMARK Flexibility Score: inf
ROOT
ATOM      1  S   UNL     1      56.357  28.424  72.427  1.00  0.00    -0.105 SA
ATOM      2  O   UNL     1      59.705  26.148  74.422  1.00  0.00    -0.274 OA
ATOM      3  N   UNL     1      58.762  28.089  73.462  1.00  0.00    -0.291 N 
ATOM      4  C   UNL     1      57.437  27.261  74.836  1.00  0.00     0.153 C 
ATOM      5  C   UNL     1      57.423  28.500  73.924  1.00  0.00     0.169 C 
ATOM      6  C   UNL     1      58.864  27.007  74.289  1.00  0.00     0.238 C 
ATOM      7  C   UNL     1      58.881  28.048  72.099  1.00  0.00     0.137 C 
ATOM      8  C   UNL     1      57.753  28.234  71.403  1.00  0.00     0.077 C 
ENDROOT
BRANCH   4   9
ATOM      9  C   UNL     1      56.433  26.192  74.476  1.00  0.00     0.189 C 
ATOM     10  C   UNL     1      56.744  24.881  75.189  1.00  0.00     0.054 C 
BRANCH   9  11
ATOM     11  O   UNL     1      55.124  26.625  74.847  1.00  0.00    -0.462 OA
BRANCH  11  12
ATOM     12  C   UNL     1      54.096  25.852  74.392  1.00  0.00     0.302 C 
ATOM     13  O   UNL     1      53.169  25.413  75.059  1.00  0.00    -0.253 OA
ATOM     14  C   UNL     1      54.261  25.608  72.922  1.00  0.00     0.139 C 
ENDBRANCH  11  12
ENDBRANCH   9  11
ENDBRANCH   4   9
BRANCH   7  15
ATOM     15  C   UNL     1      60.152  27.736  71.460  1.00  0.00     0.355 C 
ATOM     16  O   UNL     1      60.548  26.598  71.243  1.00  0.00    -0.244 OA
BRANCH  15  17
ATOM     17  O   UNL     1      60.793  28.898  71.160  1.00  0.00    -0.457 OA
BRANCH  17  18
ATOM     18  C   UNL     1      61.972  29.172  71.923  1.00  0.00     0.260 C 
BRANCH  18  19
ATOM     19  C   UNL     1      63.038  29.662  71.000  1.00  0.00     0.006 C 
ATOM     20  C   UNL     1      63.378  30.949  70.869  1.00  0.00     0.007 C 
ENDBRANCH  18  19
ENDBRANCH  17  18
ENDBRANCH  15  17
ENDBRANCH   7  15
TORSDOF 7
BEGIN_RES SER A  90
REMARK  2 active torsions:
REMARK  status: ('A' for Active; 'I' for Inactive)
REMARK    1  A    between atoms: CA   and  CB  
REMARK    2  A    between atoms: CB   and  OG  
ROOT
ATOM      1  CA  SER A  90      64.797  27.426  83.208  1.00 28.94     0.292 C 
ENDROOT
BRANCH   1   2
ATOM      2  CB  SER A  90      64.021  26.161  83.621  1.00 29.63     0.194 C 
BRANCH   2   3
ATOM      3  OG  SER A  90      63.964  25.198  82.584  1.00 30.29    -0.550 OA
ATOM      4  HG  SER A  90      64.053  25.586  81.721  1.00  0.00     0.310 HD
ENDBRANCH   2   3
ENDBRANCH   1   2
END_RES SER A  90
BEGIN_RES SER A  88
REMARK  2 active torsions:
REMARK  status: ('A' for Active; 'I' for Inactive)
REMARK    3  A    between atoms: CA   and  CB  
REMARK    4  A    between atoms: CB   and  OG  
ROOT
ATOM      5  CA  SER A  88      69.162  24.022  82.855  1.00 38.41     0.292 C 
ENDROOT
BRANCH   5   6
ATOM      6  CB  SER A  88      67.754  23.445  82.669  1.00 37.99     0.194 C 
BRANCH   6   7
ATOM      7  OG  SER A  88      67.744  22.407  81.706  1.00 37.76    -0.550 OA
ATOM      8  HG  SER A  88      68.618  22.065  81.555  1.00  0.00     0.310 HD
ENDBRANCH   6   7
ENDBRANCH   5   6
END_RES SER A  88
BEGIN_RES TYR A 143
REMARK  3 active torsions:
REMARK  status: ('A' for Active; 'I' for Inactive)
REMARK    5  A    between atoms: CA   and  CB  
REMARK    6  A    between atoms: CB   and  CG  
REMARK    7  A    between atoms: CZ   and  OH  
ROOT
ATOM      9  CA  TYR A 143      64.264  20.095  89.524  1.00 42.38     0.245 C 
ENDROOT
BRANCH   9  10
ATOM     10  CB  TYR A 143      62.885  20.126  88.852  1.00 47.73     0.022 C 
BRANCH  10  11
ATOM     11  CG  TYR A 143      62.895  20.375  87.363  1.00 52.08    -0.001 A 
ATOM     12  CD1 TYR A 143      64.030  20.863  86.720  1.00 55.58    -0.035 A 
ATOM     13  CE1 TYR A 143      64.045  21.072  85.338  1.00 58.22     0.100 A 
ATOM     14  CZ  TYR A 143      62.910  20.792  84.594  1.00 60.58    -0.121 A 
ATOM     15  CE2 TYR A 143      61.769  20.309  85.214  1.00 60.07     0.100 A 
ATOM     16  CD2 TYR A 143      61.769  20.104  86.593  1.00 56.72    -0.035 A 
BRANCH  14  17
ATOM     17  OH  TYR A 143      62.909  20.989  83.229  1.00 63.91    -0.368 OA
ATOM     18  HH  TYR A 143      63.654  20.720  82.706  1.00  0.00     0.339 HD
ENDBRANCH  14  17
ENDBRANCH  10  11
ENDBRANCH   9  10
END_RES TYR A 143
BEGIN_RES LYS A 145
REMARK  5 active torsions:
REMARK  status: ('A' for Active; 'I' for Inactive)
REMARK    8  A    between atoms: CA   and  CB  
REMARK    9  A    between atoms: CB   and  CG  
REMARK   10  A    between atoms: CG   and  CD  
REMARK   11  A    between atoms: CD   and  CE  
REMARK   12  A    between atoms: CE   and  NZ  
ROOT
ATOM     19  CA  LYS A 145      61.782  26.240  90.241  1.00 28.09     0.227 C 
ENDROOT
BRANCH  19  20
ATOM     20  CB  LYS A 145      60.456  25.589  89.829  1.00 28.44     0.039 C 
BRANCH  20  21
ATOM     21  CG  LYS A 145      60.251  25.430  88.332  1.00 31.62     0.053 C 
BRANCH  21  22
ATOM     22  CD  LYS A 145      60.318  23.971  87.894  1.00 34.02     0.048 C 
BRANCH  22  23
ATOM     23  CE  LYS A 145      61.341  23.802  86.778  1.00 33.58     0.218 C 
BRANCH  23  24
ATOM     24  NZ  LYS A 145      60.753  23.994  85.443  1.00 36.75    -0.272 N 
ATOM     25  HZ3 LYS A 145      59.970  24.647  85.476  1.00  0.00     0.311 HD
ATOM     26  HZ2 LYS A 145      61.380  24.525  84.838  1.00  0.00     0.311 HD
ATOM     27  HZ1 LYS A 145      60.480  23.114  85.007  1.00  0.00     0.311 HD
ENDBRANCH  23  24
ENDBRANCH  22  23
ENDBRANCH  21  22
ENDBRANCH  20  21
ENDBRANCH  19  20
END_RES LYS A 145
BEGIN_RES ALA A 279
REMARK  0 active torsions:
REMARK  status: ('A' for Active; 'I' for Inactive)
ROOT
ATOM     28  CA  ALA A 279      58.677  22.867  81.738  1.00 30.95     0.215 C 
ATOM     29  CB  ALA A 279      59.273  21.559  81.198  1.00 29.24     0.031 C 
ENDROOT
END_RES ALA A 279
ENDMDL
MODEL 14
REMARK VINA RESULT:    -4.581      1.561      4.756
REMARK INTER + INTRA:         -13.831
REMARK INTER:                  -6.766
REMARK INTRA:                  -7.064
REMARK UNBOUND:                -7.375
REMARK SMILES C=CCOC(=O)C1=CS[C@H]2[C@@H]([C@@H](C)OC(C)=O)C(=O)N12
REMARK SMILES IDX 9 1 19 2 20 3 11 4 10 5 18 6 7 7 8 8 12 9 13 10 14 11 15 12
REMARK SMILES IDX 17 13 16 14 5 15 6 16 4 17 3 18 2 19 1 20
REMARK H PARENT
REMARK Flexibility Score: inf
ROOT
ATOM      1  S   UNL     1      77.275  29.263  78.949  1.00  0.00    -0.105 SA
ATOM      2  O   UNL     1      72.846  29.589  79.759  1.00  0.00    -0.274 OA
ATOM      3  N   UNL     1      74.889  28.405  79.683  1.00  0.00    -0.291 N 
ATOM      4  C   UNL     1      75.158  30.224  80.657  1.00  0.00     0.153 C 
ATOM      5  C   UNL     1      76.066  29.030  80.315  1.00  0.00     0.169 C 
ATOM      6  C   UNL     1      74.016  29.404  80.007  1.00  0.00     0.238 C 
ATOM      7  C   UNL     1      75.126  27.953  78.413  1.00  0.00     0.137 C 
ATOM      8  C   UNL     1      76.316  28.270  77.887  1.00  0.00     0.077 C 
ENDROOT
BRANCH   4   9
ATOM      9  C   UNL     1      75.492  31.507  79.935  1.00  0.00     0.189 C 
ATOM     10  C   UNL     1      74.237  32.172  79.381  1.00  0.00     0.054 C 
BRANCH   9  11
ATOM     11  O   UNL     1      76.136  32.407  80.838  1.00  0.00    -0.462 OA
BRANCH  11  12
ATOM     12  C   UNL     1      77.396  32.794  80.487  1.00  0.00     0.302 C 
ATOM     13  O   UNL     1      78.359  32.891  81.235  1.00  0.00    -0.253 OA
ATOM     14  C   UNL     1      77.443  33.088  79.018  1.00  0.00     0.139 C 
ENDBRANCH  11  12
ENDBRANCH   9  11
ENDBRANCH   4   9
BRANCH   7  15
ATOM     15  C   UNL     1      74.103  27.240  77.661  1.00  0.00     0.355 C 
ATOM     16  O   UNL     1      73.075  27.759  77.244  1.00  0.00    -0.244 OA
BRANCH  15  17
ATOM     17  O   UNL     1      74.486  25.944  77.512  1.00  0.00    -0.457 OA
BRANCH  17  18
ATOM     18  C   UNL     1      74.160  25.340  76.256  1.00  0.00     0.260 C 
BRANCH  18  19
ATOM     19  C   UNL     1      75.222  25.687  75.266  1.00  0.00     0.006 C 
ATOM     20  C   UNL     1      75.053  26.557  74.264  1.00  0.00     0.007 C 
ENDBRANCH  18  19
ENDBRANCH  17  18
ENDBRANCH  15  17
ENDBRANCH   7  15
TORSDOF 7
BEGIN_RES SER A  90
REMARK  2 active torsions:
REMARK  status: ('A' for Active; 'I' for Inactive)
REMARK    1  A    between atoms: CA   and  CB  
REMARK    2  A    between atoms: CB   and  OG  
ROOT
ATOM      1  CA  SER A  90      64.797  27.426  83.208  1.00 28.94     0.292 C 
ENDROOT
BRANCH   1   2
ATOM      2  CB  SER A  90      64.021  26.161  83.621  1.00 29.63     0.194 C 
BRANCH   2   3
ATOM      3  OG  SER A  90      64.082  25.143  82.638  1.00 30.29    -0.550 OA
ATOM      4  HG  SER A  90      64.325  24.299  83.003  1.00  0.00     0.310 HD
ENDBRANCH   2   3
ENDBRANCH   1   2
END_RES SER A  90
BEGIN_RES SER A  88
REMARK  2 active torsions:
REMARK  status: ('A' for Active; 'I' for Inactive)
REMARK    3  A    between atoms: CA   and  CB  
REMARK    4  A    between atoms: CB   and  OG  
ROOT
ATOM      5  CA  SER A  88      69.162  24.022  82.855  1.00 38.41     0.292 C 
ENDROOT
BRANCH   5   6
ATOM      6  CB  SER A  88      67.754  23.445  82.669  1.00 37.99     0.194 C 
BRANCH   6   7
ATOM      7  OG  SER A  88      66.823  24.064  83.537  1.00 37.76    -0.550 OA
ATOM      8  HG  SER A  88      66.369  23.424  84.074  1.00  0.00     0.310 HD
ENDBRANCH   6   7
ENDBRANCH   5   6
END_RES SER A  88
BEGIN_RES TYR A 143
REMARK  3 active torsions:
REMARK  status: ('A' for Active; 'I' for Inactive)
REMARK    5  A    between atoms: CA   and  CB  
REMARK    6  A    between atoms: CB   and  CG  
REMARK    7  A    between atoms: CZ   and  OH  
ROOT
ATOM      9  CA  TYR A 143      64.264  20.095  89.524  1.00 42.38     0.245 C 
ENDROOT
BRANCH   9  10
ATOM     10  CB  TYR A 143      62.885  20.126  88.852  1.00 47.73     0.022 C 
BRANCH  10  11
ATOM     11  CG  TYR A 143      62.892  20.415  87.370  1.00 52.08    -0.001 A 
ATOM     12  CD1 TYR A 143      61.790  20.116  86.571  1.00 55.58    -0.035 A 
ATOM     13  CE1 TYR A 143      61.790  20.406  85.204  1.00 58.22     0.100 A 
ATOM     14  CZ  TYR A 143      62.904  20.998  84.631  1.00 60.58    -0.121 A 
ATOM     15  CE2 TYR A 143      64.011  21.301  85.407  1.00 60.07     0.100 A 
ATOM     16  CD2 TYR A 143      63.998  21.008  86.770  1.00 56.72    -0.035 A 
BRANCH  14  17
ATOM     17  OH  TYR A 143      62.918  21.293  83.284  1.00 63.91    -0.368 OA
ATOM     18  HH  TYR A 143      63.137  20.622  82.649  1.00  0.00     0.339 HD
ENDBRANCH  14  17
ENDBRANCH  10  11
ENDBRANCH   9  10
END_RES TYR A 143
BEGIN_RES LYS A 145
REMARK  5 active torsions:
REMARK  status: ('A' for Active; 'I' for Inactive)
REMARK    8  A    between atoms: CA   and  CB  
REMARK    9  A    between atoms: CB   and  CG  
REMARK   10  A    between atoms: CG   and  CD  
REMARK   11  A    between atoms: CD   and  CE  
REMARK   12  A    between atoms: CE   and  NZ  
ROOT
ATOM     19  CA  LYS A 145      61.782  26.240  90.241  1.00 28.09     0.227 C 
ENDROOT
BRANCH  19  20
ATOM     20  CB  LYS A 145      60.456  25.589  89.829  1.00 28.44     0.039 C 
BRANCH  20  21
ATOM     21  CG  LYS A 145      60.253  25.427  88.332  1.00 31.62     0.053 C 
BRANCH  21  22
ATOM     22  CD  LYS A 145      60.351  23.969  87.893  1.00 34.02     0.048 C 
BRANCH  22  23
ATOM     23  CE  LYS A 145      61.356  23.827  86.757  1.00 33.58     0.218 C 
BRANCH  23  24
ATOM     24  NZ  LYS A 145      60.735  23.995  85.433  1.00 36.75    -0.272 N 
ATOM     25  HZ3 LYS A 145      59.750  23.729  85.453  1.00  0.00     0.311 HD
ATOM     26  HZ2 LYS A 145      60.632  24.981  85.197  1.00  0.00     0.311 HD
ATOM     27  HZ1 LYS A 145      61.237  23.492  84.702  1.00  0.00     0.311 HD
ENDBRANCH  23  24
ENDBRANCH  22  23
ENDBRANCH  21  22
ENDBRANCH  20  21
ENDBRANCH  19  20
END_RES LYS A 145
BEGIN_RES ALA A 279
REMARK  0 active torsions:
REMARK  status: ('A' for Active; 'I' for Inactive)
ROOT
ATOM     28  CA  ALA A 279      58.677  22.867  81.738  1.00 30.95     0.215 C 
ATOM     29  CB  ALA A 279      59.273  21.559  81.198  1.00 29.24     0.031 C 
ENDROOT
END_RES ALA A 279
ENDMDL
MODEL 15
REMARK VINA RESULT:    -4.532      6.933      9.777
REMARK INTER + INTRA:         -13.761
REMARK INTER:                  -6.751
REMARK INTRA:                  -7.011
REMARK UNBOUND:                -7.375
REMARK SMILES C=CCOC(=O)C1=CS[C@H]2[C@@H]([C@@H](C)OC(C)=O)C(=O)N12
REMARK SMILES IDX 9 1 19 2 20 3 11 4 10 5 18 6 7 7 8 8 12 9 13 10 14 11 15 12
REMARK SMILES IDX 17 13 16 14 5 15 6 16 4 17 3 18 2 19 1 20
REMARK H PARENT
REMARK Flexibility Score: inf
ROOT
ATOM      1  S   UNL     1      66.563  23.795  80.038  1.00  0.00    -0.105 SA
ATOM      2  O   UNL     1      63.744  23.449  76.530  1.00  0.00    -0.274 OA
ATOM      3  N   UNL     1      65.851  23.198  77.567  1.00  0.00    -0.291 N 
ATOM      4  C   UNL     1      64.360  22.413  78.789  1.00  0.00     0.153 C 
ATOM      5  C   UNL     1      65.891  22.532  78.883  1.00  0.00     0.169 C 
ATOM      6  C   UNL     1      64.502  23.072  77.394  1.00  0.00     0.238 C 
ATOM      7  C   UNL     1      66.539  24.381  77.533  1.00  0.00     0.137 C 
ATOM      8  C   UNL     1      67.008  24.824  78.705  1.00  0.00     0.077 C 
ENDROOT
BRANCH   4   9
ATOM      9  C   UNL     1      63.593  23.240  79.793  1.00  0.00     0.189 C 
ATOM     10  C   UNL     1      62.201  23.583  79.277  1.00  0.00     0.054 C 
BRANCH   9  11
ATOM     11  O   UNL     1      63.471  22.511  81.014  1.00  0.00    -0.462 OA
BRANCH  11  12
ATOM     12  C   UNL     1      63.447  23.265  82.151  1.00  0.00     0.302 C 
ATOM     13  O   UNL     1      63.967  24.361  82.305  1.00  0.00    -0.253 OA
ATOM     14  C   UNL     1      62.673  22.548  83.215  1.00  0.00     0.139 C 
ENDBRANCH  11  12
ENDBRANCH   9  11
ENDBRANCH   4   9
BRANCH   7  15
ATOM     15  C   UNL     1      66.673  25.141  76.299  1.00  0.00     0.355 C 
ATOM     16  O   UNL     1      65.898  26.025  75.951  1.00  0.00    -0.244 OA
BRANCH  15  17
ATOM     17  O   UNL     1      67.774  24.708  75.628  1.00  0.00    -0.457 OA
BRANCH  17  18
ATOM     18  C   UNL     1      68.896  25.596  75.638  1.00  0.00     0.260 C 
BRANCH  18  19
ATOM     19  C   UNL     1      69.977  24.997  76.476  1.00  0.00     0.006 C 
ATOM     20  C   UNL     1      71.096  25.641  76.823  1.00  0.00     0.007 C 
ENDBRANCH  18  19
ENDBRANCH  17  18
ENDBRANCH  15  17
ENDBRANCH   7  15
TORSDOF 7
BEGIN_RES SER A  90
REMARK  2 active torsions:
REMARK  status: ('A' for Active; 'I' for Inactive)
REMARK    1  A    between atoms: CA   and  CB  
REMARK    2  A    between atoms: CB   and  OG  
ROOT
ATOM      1  CA  SER A  90      64.797  27.426  83.208  1.00 28.94     0.292 C 
ENDROOT
BRANCH   1   2
ATOM      2  CB  SER A  90      64.021  26.161  83.621  1.00 29.63     0.194 C 
BRANCH   2   3
ATOM      3  OG  SER A  90      64.550  25.558  84.789  1.00 30.29    -0.550 OA
ATOM      4  HG  SER A  90      65.325  25.037  84.610  1.00  0.00     0.310 HD
ENDBRANCH   2   3
ENDBRANCH   1   2
END_RES SER A  90
BEGIN_RES SER A  88
REMARK  2 active torsions:
REMARK  status: ('A' for Active; 'I' for Inactive)
REMARK    3  A    between atoms: CA   and  CB  
REMARK    4  A    between atoms: CB   and  OG  
ROOT
ATOM      5  CA  SER A  88      69.162  24.022  82.855  1.00 38.41     0.292 C 
ENDROOT
BRANCH   5   6
ATOM      6  CB  SER A  88      67.754  23.445  82.669  1.00 37.99     0.194 C 
BRANCH   6   7
ATOM      7  OG  SER A  88      66.828  24.046  83.555  1.00 37.76    -0.550 OA
ATOM      8  HG  SER A  88      66.936  23.722  84.443  1.00  0.00     0.310 HD
ENDBRANCH   6   7
ENDBRANCH   5   6
END_RES SER A  88
BEGIN_RES TYR A 143
REMARK  3 active torsions:
REMARK  status: ('A' for Active; 'I' for Inactive)
REMARK    5  A    between atoms: CA   and  CB  
REMARK    6  A    between atoms: CB   and  CG  
REMARK    7  A    between atoms: CZ   and  OH  
ROOT
ATOM      9  CA  TYR A 143      64.264  20.095  89.524  1.00 42.38     0.245 C 
ENDROOT
BRANCH   9  10
ATOM     10  CB  TYR A 143      62.885  20.126  88.852  1.00 47.73     0.022 C 
BRANCH  10  11
ATOM     11  CG  TYR A 143      62.868  19.754  87.389  1.00 52.08    -0.001 A 
ATOM     12  CD1 TYR A 143      61.672  19.484  86.727  1.00 55.58    -0.035 A 
ATOM     13  CE1 TYR A 143      61.656  19.161  85.367  1.00 58.22     0.100 A 
ATOM     14  CZ  TYR A 143      62.849  19.106  84.664  1.00 60.58    -0.121 A 
ATOM     15  CE2 TYR A 143      64.050  19.368  85.304  1.00 60.07     0.100 A 
ATOM     16  CD2 TYR A 143      64.051  19.690  86.661  1.00 56.72    -0.035 A 
BRANCH  14  17
ATOM     17  OH  TYR A 143      62.850  18.793  83.322  1.00 63.91    -0.368 OA
ATOM     18  HH  TYR A 143      63.185  17.955  83.025  1.00  0.00     0.339 HD
ENDBRANCH  14  17
ENDBRANCH  10  11
ENDBRANCH   9  10
END_RES TYR A 143
BEGIN_RES LYS A 145
REMARK  5 active torsions:
REMARK  status: ('A' for Active; 'I' for Inactive)
REMARK    8  A    between atoms: CA   and  CB  
REMARK    9  A    between atoms: CB   and  CG  
REMARK   10  A    between atoms: CG   and  CD  
REMARK   11  A    between atoms: CD   and  CE  
REMARK   12  A    between atoms: CE   and  NZ  
ROOT
ATOM     19  CA  LYS A 145      61.782  26.240  90.241  1.00 28.09     0.227 C 
ENDROOT
BRANCH  19  20
ATOM     20  CB  LYS A 145      60.456  25.589  89.829  1.00 28.44     0.039 C 
BRANCH  20  21
ATOM     21  CG  LYS A 145      60.238  25.459  88.331  1.00 31.62     0.053 C 
BRANCH  21  22
ATOM     22  CD  LYS A 145      60.351  24.013  87.857  1.00 34.02     0.048 C 
BRANCH  22  23
ATOM     23  CE  LYS A 145      61.265  23.928  86.642  1.00 33.58     0.218 C 
BRANCH  23  24
ATOM     24  NZ  LYS A 145      61.845  25.232  86.282  1.00 36.75    -0.272 N 
ATOM     25  HZ3 LYS A 145      62.650  25.451  86.869  1.00  0.00     0.311 HD
ATOM     26  HZ2 LYS A 145      62.311  25.190  85.376  1.00  0.00     0.311 HD
ATOM     27  HZ1 LYS A 145      61.157  25.984  86.307  1.00  0.00     0.311 HD
ENDBRANCH  23  24
ENDBRANCH  22  23
ENDBRANCH  21  22
ENDBRANCH  20  21
ENDBRANCH  19  20
END_RES LYS A 145
BEGIN_RES ALA A 279
REMARK  0 active torsions:
REMARK  status: ('A' for Active; 'I' for Inactive)
ROOT
ATOM     28  CA  ALA A 279      58.677  22.867  81.738  1.00 30.95     0.215 C 
ATOM     29  CB  ALA A 279      59.273  21.559  81.198  1.00 29.24     0.031 C 
ENDROOT
END_RES ALA A 279
ENDMDL
MODEL 16
REMARK VINA RESULT:    -4.499     11.418     14.453
REMARK INTER + INTRA:         -13.716
REMARK INTER:                  -6.586
REMARK INTRA:                  -7.129
REMARK UNBOUND:                -7.375
REMARK SMILES C=CCOC(=O)C1=CS[C@H]2[C@@H]([C@@H](C)OC(C)=O)C(=O)N12
REMARK SMILES IDX 9 1 19 2 20 3 11 4 10 5 18 6 7 7 8 8 12 9 13 10 14 11 15 12
REMARK SMILES IDX 17 13 16 14 5 15 6 16 4 17 3 18 2 19 1 20
REMARK H PARENT
REMARK Flexibility Score: inf
ROOT
ATOM      1  S   UNL     1      58.285  28.162  72.967  1.00  0.00    -0.105 SA
ATOM      2  O   UNL     1      59.868  24.630  75.289  1.00  0.00    -0.274 OA
ATOM      3  N   UNL     1      58.194  25.764  74.068  1.00  0.00    -0.291 N 
ATOM      4  C   UNL     1      60.002  25.845  73.040  1.00  0.00     0.153 C 
ATOM      5  C   UNL     1      58.576  26.357  72.771  1.00  0.00     0.169 C 
ATOM      6  C   UNL     1      59.423  25.232  74.339  1.00  0.00     0.238 C 
ATOM      7  C   UNL     1      57.516  26.628  74.884  1.00  0.00     0.137 C 
ATOM      8  C   UNL     1      57.432  27.895  74.462  1.00  0.00     0.077 C 
ENDROOT
BRANCH   4   9
ATOM      9  C   UNL     1      61.035  26.923  73.266  1.00  0.00     0.189 C 
ATOM     10  C   UNL     1      62.336  26.336  73.800  1.00  0.00     0.054 C 
BRANCH   9  11
ATOM     11  O   UNL     1      61.297  27.595  72.034  1.00  0.00    -0.462 OA
BRANCH  11  12
ATOM     12  C   UNL     1      62.208  28.609  72.098  1.00  0.00     0.302 C 
ATOM     13  O   UNL     1      63.297  28.641  71.542  1.00  0.00    -0.253 OA
ATOM     14  C   UNL     1      61.677  29.710  72.966  1.00  0.00     0.139 C 
ENDBRANCH  11  12
ENDBRANCH   9  11
ENDBRANCH   4   9
BRANCH   7  15
ATOM     15  C   UNL     1      56.994  26.197  76.173  1.00  0.00     0.355 C 
ATOM     16  O   UNL     1      56.932  26.917  77.162  1.00  0.00    -0.244 OA
BRANCH  15  17
ATOM     17  O   UNL     1      56.601  24.898  76.080  1.00  0.00    -0.457 OA
BRANCH  17  18
ATOM     18  C   UNL     1      57.112  24.020  77.088  1.00  0.00     0.260 C 
BRANCH  18  19
ATOM     19  C   UNL     1      56.510  22.668  76.897  1.00  0.00     0.006 C 
ATOM     20  C   UNL     1      56.510  21.711  77.832  1.00  0.00     0.007 C 
ENDBRANCH  18  19
ENDBRANCH  17  18
ENDBRANCH  15  17
ENDBRANCH   7  15
TORSDOF 7
BEGIN_RES SER A  90
REMARK  2 active torsions:
REMARK  status: ('A' for Active; 'I' for Inactive)
REMARK    1  A    between atoms: CA   and  CB  
REMARK    2  A    between atoms: CB   and  OG  
ROOT
ATOM      1  CA  SER A  90      64.797  27.426  83.208  1.00 28.94     0.292 C 
ENDROOT
BRANCH   1   2
ATOM      2  CB  SER A  90      64.021  26.161  83.621  1.00 29.63     0.194 C 
BRANCH   2   3
ATOM      3  OG  SER A  90      64.081  25.143  82.637  1.00 30.29    -0.550 OA
ATOM      4  HG  SER A  90      64.770  24.512  82.808  1.00  0.00     0.310 HD
ENDBRANCH   2   3
ENDBRANCH   1   2
END_RES SER A  90
BEGIN_RES SER A  88
REMARK  2 active torsions:
REMARK  status: ('A' for Active; 'I' for Inactive)
REMARK    3  A    between atoms: CA   and  CB  
REMARK    4  A    between atoms: CB   and  OG  
ROOT
ATOM      5  CA  SER A  88      69.162  24.022  82.855  1.00 38.41     0.292 C 
ENDROOT
BRANCH   5   6
ATOM      6  CB  SER A  88      67.754  23.445  82.669  1.00 37.99     0.194 C 
BRANCH   6   7
ATOM      7  OG  SER A  88      66.832  24.030  83.571  1.00 37.76    -0.550 OA
ATOM      8  HG  SER A  88      66.278  23.372  83.975  1.00  0.00     0.310 HD
ENDBRANCH   6   7
ENDBRANCH   5   6
END_RES SER A  88
BEGIN_RES TYR A 143
REMARK  3 active torsions:
REMARK  status: ('A' for Active; 'I' for Inactive)
REMARK    5  A    between atoms: CA   and  CB  
REMARK    6  A    between atoms: CB   and  CG  
REMARK    7  A    between atoms: CZ   and  OH  
ROOT
ATOM      9  CA  TYR A 143      64.264  20.095  89.524  1.00 42.38     0.245 C 
ENDROOT
BRANCH   9  10
ATOM     10  CB  TYR A 143      62.885  20.126  88.852  1.00 47.73     0.022 C 
BRANCH  10  11
ATOM     11  CG  TYR A 143      62.853  19.662  87.416  1.00 52.08    -0.001 A 
ATOM     12  CD1 TYR A 143      63.532  20.356  86.417  1.00 55.58    -0.035 A 
ATOM     13  CE1 TYR A 143      63.520  19.912  85.092  1.00 58.22     0.100 A 
ATOM     14  CZ  TYR A 143      62.818  18.764  84.763  1.00 60.58    -0.121 A 
ATOM     15  CE2 TYR A 143      62.133  18.059  85.740  1.00 60.07     0.100 A 
ATOM     16  CD2 TYR A 143      62.156  18.512  87.059  1.00 56.72    -0.035 A 
BRANCH  14  17
ATOM     17  OH  TYR A 143      62.800  18.310  83.462  1.00 63.91    -0.368 OA
ATOM     18  HH  TYR A 143      62.284  18.762  82.804  1.00  0.00     0.339 HD
ENDBRANCH  14  17
ENDBRANCH  10  11
ENDBRANCH   9  10
END_RES TYR A 143
BEGIN_RES LYS A 145
REMARK  5 active torsions:
REMARK  status: ('A' for Active; 'I' for Inactive)
REMARK    8  A    between atoms: CA   and  CB  
REMARK    9  A    between atoms: CB   and  CG  
REMARK   10  A    between atoms: CG   and  CD  
REMARK   11  A    between atoms: CD   and  CE  
REMARK   12  A    between atoms: CE   and  NZ  
ROOT
ATOM     19  CA  LYS A 145      61.782  26.240  90.241  1.00 28.09     0.227 C 
ENDROOT
BRANCH  19  20
ATOM     20  CB  LYS A 145      60.456  25.589  89.829  1.00 28.44     0.039 C 
BRANCH  20  21
ATOM     21  CG  LYS A 145      60.245  25.442  88.332  1.00 31.62     0.053 C 
BRANCH  21  22
ATOM     22  CD  LYS A 145      60.300  23.985  87.883  1.00 34.02     0.048 C 
BRANCH  22  23
ATOM     23  CE  LYS A 145      61.070  23.865  86.575  1.00 33.58     0.218 C 
BRANCH  23  24
ATOM     24  NZ  LYS A 145      61.815  25.091  86.247  1.00 36.75    -0.272 N 
ATOM     25  HZ3 LYS A 145      61.694  25.800  86.971  1.00  0.00     0.311 HD
ATOM     26  HZ2 LYS A 145      62.821  24.944  86.330  1.00  0.00     0.311 HD
ATOM     27  HZ1 LYS A 145      61.572  25.460  85.328  1.00  0.00     0.311 HD
ENDBRANCH  23  24
ENDBRANCH  22  23
ENDBRANCH  21  22
ENDBRANCH  20  21
ENDBRANCH  19  20
END_RES LYS A 145
BEGIN_RES ALA A 279
REMARK  0 active torsions:
REMARK  status: ('A' for Active; 'I' for Inactive)
ROOT
ATOM     28  CA  ALA A 279      58.677  22.867  81.738  1.00 30.95     0.215 C 
ATOM     29  CB  ALA A 279      59.273  21.559  81.198  1.00 29.24     0.031 C 
ENDROOT
END_RES ALA A 279
ENDMDL
MODEL 17
REMARK VINA RESULT:    -4.449     11.357     13.611
REMARK INTER + INTRA:         -13.645
REMARK INTER:                  -6.372
REMARK INTRA:                  -7.273
REMARK UNBOUND:                -7.375
REMARK SMILES C=CCOC(=O)C1=CS[C@H]2[C@@H]([C@@H](C)OC(C)=O)C(=O)N12
REMARK SMILES IDX 9 1 19 2 20 3 11 4 10 5 18 6 7 7 8 8 12 9 13 10 14 11 15 12
REMARK SMILES IDX 17 13 16 14 5 15 6 16 4 17 3 18 2 19 1 20
REMARK H PARENT
REMARK Flexibility Score: inf
ROOT
ATOM      1  S   UNL     1      60.816  25.140  75.153  1.00  0.00    -0.105 SA
ATOM      2  O   UNL     1      59.257  27.258  71.484  1.00  0.00    -0.274 OA
ATOM      3  N   UNL     1      60.502  25.568  72.566  1.00  0.00    -0.291 N 
ATOM      4  C   UNL     1      58.596  25.685  73.392  1.00  0.00     0.153 C 
ATOM      5  C   UNL     1      59.833  24.803  73.636  1.00  0.00     0.169 C 
ATOM      6  C   UNL     1      59.421  26.345  72.260  1.00  0.00     0.238 C 
ATOM      7  C   UNL     1      61.734  26.045  72.926  1.00  0.00     0.137 C 
ATOM      8  C   UNL     1      62.079  25.882  74.209  1.00  0.00     0.077 C 
ENDROOT
BRANCH   4   9
ATOM      9  C   UNL     1      58.243  26.615  74.528  1.00  0.00     0.189 C 
ATOM     10  C   UNL     1      57.667  27.927  74.008  1.00  0.00     0.054 C 
BRANCH   9  11
ATOM     11  O   UNL     1      57.279  25.987  75.375  1.00  0.00    -0.462 OA
BRANCH  11  12
ATOM     12  C   UNL     1      57.245  26.436  76.663  1.00  0.00     0.302 C 
ATOM     13  O   UNL     1      56.650  27.424  77.069  1.00  0.00    -0.253 OA
ATOM     14  C   UNL     1      58.055  25.527  77.536  1.00  0.00     0.139 C 
ENDBRANCH  11  12
ENDBRANCH   9  11
ENDBRANCH   4   9
BRANCH   7  15
ATOM     15  C   UNL     1      62.575  26.758  71.975  1.00  0.00     0.355 C 
ATOM     16  O   UNL     1      62.936  26.297  70.899  1.00  0.00    -0.244 OA
BRANCH  15  17
ATOM     17  O   UNL     1      62.873  27.985  72.481  1.00  0.00    -0.457 OA
BRANCH  17  18
ATOM     18  C   UNL     1      62.493  29.101  71.670  1.00  0.00     0.260 C 
BRANCH  18  19
ATOM     19  C   UNL     1      61.387  29.836  72.351  1.00  0.00     0.006 C 
ATOM     20  C   UNL     1      61.045  29.653  73.630  1.00  0.00     0.007 C 
ENDBRANCH  18  19
ENDBRANCH  17  18
ENDBRANCH  15  17
ENDBRANCH   7  15
TORSDOF 7
BEGIN_RES SER A  90
REMARK  2 active torsions:
REMARK  status: ('A' for Active; 'I' for Inactive)
REMARK    1  A    between atoms: CA   and  CB  
REMARK    2  A    between atoms: CB   and  OG  
ROOT
ATOM      1  CA  SER A  90      64.797  27.426  83.208  1.00 28.94     0.292 C 
ENDROOT
BRANCH   1   2
ATOM      2  CB  SER A  90      64.021  26.161  83.621  1.00 29.63     0.194 C 
BRANCH   2   3
ATOM      3  OG  SER A  90      64.003  25.179  82.600  1.00 30.29    -0.550 OA
ATOM      4  HG  SER A  90      64.568  25.403  81.870  1.00  0.00     0.310 HD
ENDBRANCH   2   3
ENDBRANCH   1   2
END_RES SER A  90
BEGIN_RES SER A  88
REMARK  2 active torsions:
REMARK  status: ('A' for Active; 'I' for Inactive)
REMARK    3  A    between atoms: CA   and  CB  
REMARK    4  A    between atoms: CB   and  OG  
ROOT
ATOM      5  CA  SER A  88      69.162  24.022  82.855  1.00 38.41     0.292 C 
ENDROOT
BRANCH   5   6
ATOM      6  CB  SER A  88      67.754  23.445  82.669  1.00 37.99     0.194 C 
BRANCH   6   7
ATOM      7  OG  SER A  88      67.788  22.212  81.975  1.00 37.76    -0.550 OA
ATOM      8  HG  SER A  88      68.501  22.186  81.347  1.00  0.00     0.310 HD
ENDBRANCH   6   7
ENDBRANCH   5   6
END_RES SER A  88
BEGIN_RES TYR A 143
REMARK  3 active torsions:
REMARK  status: ('A' for Active; 'I' for Inactive)
REMARK    5  A    between atoms: CA   and  CB  
REMARK    6  A    between atoms: CB   and  CG  
REMARK    7  A    between atoms: CZ   and  OH  
ROOT
ATOM      9  CA  TYR A 143      64.264  20.095  89.524  1.00 42.38     0.245 C 
ENDROOT
BRANCH   9  10
ATOM     10  CB  TYR A 143      62.885  20.126  88.852  1.00 47.73     0.022 C 
BRANCH  10  11
ATOM     11  CG  TYR A 143      62.849  19.640  87.423  1.00 52.08    -0.001 A 
ATOM     12  CD1 TYR A 143      62.212  18.448  87.082  1.00 55.58    -0.035 A 
ATOM     13  CE1 TYR A 143      62.160  18.011  85.756  1.00 58.22     0.100 A 
ATOM     14  CZ  TYR A 143      62.753  18.772  84.762  1.00 60.58    -0.121 A 
ATOM     15  CE2 TYR A 143      63.393  19.960  85.079  1.00 60.07     0.100 A 
ATOM     16  CD2 TYR A 143      63.437  20.385  86.407  1.00 56.72    -0.035 A 
BRANCH  14  17
ATOM     17  OH  TYR A 143      62.707  18.357  83.448  1.00 63.91    -0.368 OA
ATOM     18  HH  TYR A 143      62.095  17.682  83.180  1.00  0.00     0.339 HD
ENDBRANCH  14  17
ENDBRANCH  10  11
ENDBRANCH   9  10
END_RES TYR A 143
BEGIN_RES LYS A 145
REMARK  5 active torsions:
REMARK  status: ('A' for Active; 'I' for Inactive)
REMARK    8  A    between atoms: CA   and  CB  
REMARK    9  A    between atoms: CB   and  CG  
REMARK   10  A    between atoms: CG   and  CD  
REMARK   11  A    between atoms: CD   and  CE  
REMARK   12  A    between atoms: CE   and  NZ  
ROOT
ATOM     19  CA  LYS A 145      61.782  26.240  90.241  1.00 28.09     0.227 C 
ENDROOT
BRANCH  19  20
ATOM     20  CB  LYS A 145      60.456  25.589  89.829  1.00 28.44     0.039 C 
BRANCH  20  21
ATOM     21  CG  LYS A 145      60.267  25.398  88.334  1.00 31.62     0.053 C 
BRANCH  21  22
ATOM     22  CD  LYS A 145      60.236  23.924  87.941  1.00 34.02     0.048 C 
BRANCH  22  23
ATOM     23  CE  LYS A 145      60.818  23.738  86.546  1.00 33.58     0.218 C 
BRANCH  23  24
ATOM     24  NZ  LYS A 145      62.216  24.188  86.455  1.00 36.75    -0.272 N 
ATOM     25  HZ3 LYS A 145      62.392  24.972  87.084  1.00  0.00     0.311 HD
ATOM     26  HZ2 LYS A 145      62.850  23.504  86.868  1.00  0.00     0.311 HD
ATOM     27  HZ1 LYS A 145      62.491  24.415  85.500  1.00  0.00     0.311 HD
ENDBRANCH  23  24
ENDBRANCH  22  23
ENDBRANCH  21  22
ENDBRANCH  20  21
ENDBRANCH  19  20
END_RES LYS A 145
BEGIN_RES ALA A 279
REMARK  0 active torsions:
REMARK  status: ('A' for Active; 'I' for Inactive)
ROOT
ATOM     28  CA  ALA A 279      58.677  22.867  81.738  1.00 30.95     0.215 C 
ATOM     29  CB  ALA A 279      59.273  21.559  81.198  1.00 29.24     0.031 C 
ENDROOT
END_RES ALA A 279
ENDMDL
MODEL 18
REMARK VINA RESULT:    -4.421      8.862     10.660
REMARK INTER + INTRA:         -13.605
REMARK INTER:                  -6.557
REMARK INTRA:                  -7.048
REMARK UNBOUND:                -7.375
REMARK SMILES C=CCOC(=O)C1=CS[C@H]2[C@@H]([C@@H](C)OC(C)=O)C(=O)N12
REMARK SMILES IDX 9 1 19 2 20 3 11 4 10 5 18 6 7 7 8 8 12 9 13 10 14 11 15 12
REMARK SMILES IDX 17 13 16 14 5 15 6 16 4 17 3 18 2 19 1 20
REMARK H PARENT
REMARK Flexibility Score: inf
ROOT
ATOM      1  S   UNL     1      66.461  20.182  79.418  1.00  0.00    -0.105 SA
ATOM      2  O   UNL     1      64.485  22.524  82.732  1.00  0.00    -0.274 OA
ATOM      3  N   UNL     1      64.716  21.856  80.479  1.00  0.00    -0.291 N 
ATOM      4  C   UNL     1      64.720  20.185  81.719  1.00  0.00     0.153 C 
ATOM      5  C   UNL     1      64.812  20.410  80.199  1.00  0.00     0.169 C 
ATOM      6  C   UNL     1      64.571  21.722  81.830  1.00  0.00     0.238 C 
ATOM      7  C   UNL     1      65.689  22.596  79.863  1.00  0.00     0.137 C 
ATOM      8  C   UNL     1      66.649  21.904  79.238  1.00  0.00     0.077 C 
ENDROOT
BRANCH   4   9
ATOM      9  C   UNL     1      65.972  19.633  82.358  1.00  0.00     0.189 C 
ATOM     10  C   UNL     1      66.468  20.542  83.476  1.00  0.00     0.054 C 
BRANCH   9  11
ATOM     11  O   UNL     1      65.699  18.339  82.897  1.00  0.00    -0.462 OA
BRANCH  11  12
ATOM     12  C   UNL     1      65.722  17.310  82.001  1.00  0.00     0.302 C 
ATOM     13  O   UNL     1      64.758  16.663  81.615  1.00  0.00    -0.253 OA
ATOM     14  C   UNL     1      67.128  17.076  81.538  1.00  0.00     0.139 C 
ENDBRANCH  11  12
ENDBRANCH   9  11
ENDBRANCH   4   9
BRANCH   7  15
ATOM     15  C   UNL     1      65.709  24.048  79.962  1.00  0.00     0.355 C 
ATOM     16  O   UNL     1      66.306  24.667  80.836  1.00  0.00    -0.244 OA
BRANCH  15  17
ATOM     17  O   UNL     1      64.974  24.572  78.945  1.00  0.00    -0.457 OA
BRANCH  17  18
ATOM     18  C   UNL     1      65.526  25.730  78.312  1.00  0.00     0.260 C 
BRANCH  18  19
ATOM     19  C   UNL     1      65.739  25.431  76.865  1.00  0.00     0.006 C 
ATOM     20  C   UNL     1      66.925  25.111  76.335  1.00  0.00     0.007 C 
ENDBRANCH  18  19
ENDBRANCH  17  18
ENDBRANCH  15  17
ENDBRANCH   7  15
TORSDOF 7
BEGIN_RES SER A  90
REMARK  2 active torsions:
REMARK  status: ('A' for Active; 'I' for Inactive)
REMARK    1  A    between atoms: CA   and  CB  
REMARK    2  A    between atoms: CB   and  OG  
ROOT
ATOM      1  CA  SER A  90      64.797  27.426  83.208  1.00 28.94     0.292 C 
ENDROOT
BRANCH   1   2
ATOM      2  CB  SER A  90      64.021  26.161  83.621  1.00 29.63     0.194 C 
BRANCH   2   3
ATOM      3  OG  SER A  90      63.993  25.183  82.596  1.00 30.29    -0.550 OA
ATOM      4  HG  SER A  90      64.834  24.758  82.476  1.00  0.00     0.310 HD
ENDBRANCH   2   3
ENDBRANCH   1   2
END_RES SER A  90
BEGIN_RES SER A  88
REMARK  2 active torsions:
REMARK  status: ('A' for Active; 'I' for Inactive)
REMARK    3  A    between atoms: CA   and  CB  
REMARK    4  A    between atoms: CB   and  OG  
ROOT
ATOM      5  CA  SER A  88      69.162  24.022  82.855  1.00 38.41     0.292 C 
ENDROOT
BRANCH   5   6
ATOM      6  CB  SER A  88      67.754  23.445  82.669  1.00 37.99     0.194 C 
BRANCH   6   7
ATOM      7  OG  SER A  88      66.821  24.071  83.530  1.00 37.76    -0.550 OA
ATOM      8  HG  SER A  88      67.232  24.752  84.051  1.00  0.00     0.310 HD
ENDBRANCH   6   7
ENDBRANCH   5   6
END_RES SER A  88
BEGIN_RES TYR A 143
REMARK  3 active torsions:
REMARK  status: ('A' for Active; 'I' for Inactive)
REMARK    5  A    between atoms: CA   and  CB  
REMARK    6  A    between atoms: CB   and  CG  
REMARK    7  A    between atoms: CZ   and  OH  
ROOT
ATOM      9  CA  TYR A 143      64.264  20.095  89.524  1.00 42.38     0.245 C 
ENDROOT
BRANCH   9  10
ATOM     10  CB  TYR A 143      62.885  20.126  88.852  1.00 47.73     0.022 C 
BRANCH  10  11
ATOM     11  CG  TYR A 143      62.834  19.567  87.451  1.00 52.08    -0.001 A 
ATOM     12  CD1 TYR A 143      63.136  20.359  86.345  1.00 55.58    -0.035 A 
ATOM     13  CE1 TYR A 143      63.110  19.834  85.051  1.00 58.22     0.100 A 
ATOM     14  CZ  TYR A 143      62.775  18.503  84.861  1.00 60.58    -0.121 A 
ATOM     15  CE2 TYR A 143      62.468  17.697  85.946  1.00 60.07     0.100 A 
ATOM     16  CD2 TYR A 143      62.500  18.234  87.232  1.00 56.72    -0.035 A 
BRANCH  14  17
ATOM     17  OH  TYR A 143      62.749  17.968  83.590  1.00 63.91    -0.368 OA
ATOM     18  HH  TYR A 143      62.274  18.408  82.895  1.00  0.00     0.339 HD
ENDBRANCH  14  17
ENDBRANCH  10  11
ENDBRANCH   9  10
END_RES TYR A 143
BEGIN_RES LYS A 145
REMARK  5 active torsions:
REMARK  status: ('A' for Active; 'I' for Inactive)
REMARK    8  A    between atoms: CA   and  CB  
REMARK    9  A    between atoms: CB   and  CG  
REMARK   10  A    between atoms: CG   and  CD  
REMARK   11  A    between atoms: CD   and  CE  
REMARK   12  A    between atoms: CE   and  NZ  
ROOT
ATOM     19  CA  LYS A 145      61.782  26.240  90.241  1.00 28.09     0.227 C 
ENDROOT
BRANCH  19  20
ATOM     20  CB  LYS A 145      60.456  25.589  89.829  1.00 28.44     0.039 C 
BRANCH  20  21
ATOM     21  CG  LYS A 145      60.259  25.413  88.333  1.00 31.62     0.053 C 
BRANCH  21  22
ATOM     22  CD  LYS A 145      60.149  23.945  87.935  1.00 34.02     0.048 C 
BRANCH  22  23
ATOM     23  CE  LYS A 145      61.197  23.604  86.884  1.00 33.58     0.218 C 
BRANCH  23  24
ATOM     24  NZ  LYS A 145      60.772  23.977  85.525  1.00 36.75    -0.272 N 
ATOM     25  HZ3 LYS A 145      60.288  23.206  85.066  1.00  0.00     0.311 HD
ATOM     26  HZ2 LYS A 145      60.010  24.655  85.551  1.00  0.00     0.311 HD
ATOM     27  HZ1 LYS A 145      61.546  24.316  84.955  1.00  0.00     0.311 HD
ENDBRANCH  23  24
ENDBRANCH  22  23
ENDBRANCH  21  22
ENDBRANCH  20  21
ENDBRANCH  19  20
END_RES LYS A 145
BEGIN_RES ALA A 279
REMARK  0 active torsions:
REMARK  status: ('A' for Active; 'I' for Inactive)
ROOT
ATOM     28  CA  ALA A 279      58.677  22.867  81.738  1.00 30.95     0.215 C 
ATOM     29  CB  ALA A 279      59.273  21.559  81.198  1.00 29.24     0.031 C 
ENDROOT
END_RES ALA A 279
ENDMDL
MODEL 19
REMARK VINA RESULT:    -4.372      8.175      9.699
REMARK INTER + INTRA:         -13.537
REMARK INTER:                  -6.719
REMARK INTRA:                  -6.818
REMARK UNBOUND:                -7.375
REMARK SMILES C=CCOC(=O)C1=CS[C@H]2[C@@H]([C@@H](C)OC(C)=O)C(=O)N12
REMARK SMILES IDX 9 1 19 2 20 3 11 4 10 5 18 6 7 7 8 8 12 9 13 10 14 11 15 12
REMARK SMILES IDX 17 13 16 14 5 15 6 16 4 17 3 18 2 19 1 20
REMARK H PARENT
REMARK Flexibility Score: inf
ROOT
ATOM      1  S   UNL     1      65.893  25.247  76.647  1.00  0.00    -0.105 SA
ATOM      2  O   UNL     1      66.981  21.658  79.161  1.00  0.00    -0.274 OA
ATOM      3  N   UNL     1      65.437  23.191  78.240  1.00  0.00    -0.291 N 
ATOM      4  C   UNL     1      66.707  22.481  76.752  1.00  0.00     0.153 C 
ATOM      5  C   UNL     1      65.515  23.453  76.790  1.00  0.00     0.169 C 
ATOM      6  C   UNL     1      66.449  22.274  78.265  1.00  0.00     0.238 C 
ATOM      7  C   UNL     1      65.391  24.329  78.998  1.00  0.00     0.137 C 
ATOM      8  C   UNL     1      65.571  25.482  78.343  1.00  0.00     0.077 C 
ENDROOT
BRANCH   4   9
ATOM      9  C   UNL     1      68.038  23.116  76.428  1.00  0.00     0.189 C 
ATOM     10  C   UNL     1      69.178  22.408  77.150  1.00  0.00     0.054 C 
BRANCH   9  11
ATOM     11  O   UNL     1      68.266  23.050  75.020  1.00  0.00    -0.462 OA
BRANCH  11  12
ATOM     12  C   UNL     1      69.099  24.003  74.512  1.00  0.00     0.302 C 
ATOM     13  O   UNL     1      68.979  25.214  74.641  1.00  0.00    -0.253 OA
ATOM     14  C   UNL     1      70.214  23.348  73.755  1.00  0.00     0.139 C 
ENDBRANCH  11  12
ENDBRANCH   9  11
ENDBRANCH   4   9
BRANCH   7  15
ATOM     15  C   UNL     1      65.237  24.267  80.445  1.00  0.00     0.355 C 
ATOM     16  O   UNL     1      66.061  24.703  81.240  1.00  0.00    -0.244 OA
BRANCH  15  17
ATOM     17  O   UNL     1      64.055  23.662  80.739  1.00  0.00    -0.457 OA
BRANCH  17  18
ATOM     18  C   UNL     1      64.113  22.639  81.738  1.00  0.00     0.260 C 
BRANCH  18  19
ATOM     19  C   UNL     1      64.056  21.307  81.066  1.00  0.00     0.006 C 
ATOM     20  C   UNL     1      64.778  20.247  81.446  1.00  0.00     0.007 C 
ENDBRANCH  18  19
ENDBRANCH  17  18
ENDBRANCH  15  17
ENDBRANCH   7  15
TORSDOF 7
BEGIN_RES SER A  90
REMARK  2 active torsions:
REMARK  status: ('A' for Active; 'I' for Inactive)
REMARK    1  A    between atoms: CA   and  CB  
REMARK    2  A    between atoms: CB   and  OG  
ROOT
ATOM      1  CA  SER A  90      64.797  27.426  83.208  1.00 28.94     0.292 C 
ENDROOT
BRANCH   1   2
ATOM      2  CB  SER A  90      64.021  26.161  83.621  1.00 29.63     0.194 C 
BRANCH   2   3
ATOM      3  OG  SER A  90      64.875  25.125  84.074  1.00 30.29    -0.550 OA
ATOM      4  HG  SER A  90      65.509  24.863  83.416  1.00  0.00     0.310 HD
ENDBRANCH   2   3
ENDBRANCH   1   2
END_RES SER A  90
BEGIN_RES SER A  88
REMARK  2 active torsions:
REMARK  status: ('A' for Active; 'I' for Inactive)
REMARK    3  A    between atoms: CA   and  CB  
REMARK    4  A    between atoms: CB   and  OG  
ROOT
ATOM      5  CA  SER A  88      69.162  24.022  82.855  1.00 38.41     0.292 C 
ENDROOT
BRANCH   5   6
ATOM      6  CB  SER A  88      67.754  23.445  82.669  1.00 37.99     0.194 C 
BRANCH   6   7
ATOM      7  OG  SER A  88      67.773  22.287  81.854  1.00 37.76    -0.550 OA
ATOM      8  HG  SER A  88      68.351  21.622  82.211  1.00  0.00     0.310 HD
ENDBRANCH   6   7
ENDBRANCH   5   6
END_RES SER A  88
BEGIN_RES TYR A 143
REMARK  3 active torsions:
REMARK  status: ('A' for Active; 'I' for Inactive)
REMARK    5  A    between atoms: CA   and  CB  
REMARK    6  A    between atoms: CB   and  CG  
REMARK    7  A    between atoms: CZ   and  OH  
ROOT
ATOM      9  CA  TYR A 143      64.264  20.095  89.524  1.00 42.38     0.245 C 
ENDROOT
BRANCH   9  10
ATOM     10  CB  TYR A 143      62.885  20.126  88.852  1.00 47.73     0.022 C 
BRANCH  10  11
ATOM     11  CG  TYR A 143      62.852  19.659  87.417  1.00 52.08    -0.001 A 
ATOM     12  CD1 TYR A 143      63.842  20.036  86.512  1.00 55.58    -0.035 A 
ATOM     13  CE1 TYR A 143      63.823  19.584  85.190  1.00 58.22     0.100 A 
ATOM     14  CZ  TYR A 143      62.801  18.749  84.769  1.00 60.58    -0.121 A 
ATOM     15  CE2 TYR A 143      61.804  18.364  85.651  1.00 60.07     0.100 A 
ATOM     16  CD2 TYR A 143      61.837  18.820  86.968  1.00 56.72    -0.035 A 
BRANCH  14  17
ATOM     17  OH  TYR A 143      62.769  18.291  83.469  1.00 63.91    -0.368 OA
ATOM     18  HH  TYR A 143      63.489  18.476  82.878  1.00  0.00     0.339 HD
ENDBRANCH  14  17
ENDBRANCH  10  11
ENDBRANCH   9  10
END_RES TYR A 143
BEGIN_RES LYS A 145
REMARK  5 active torsions:
REMARK  status: ('A' for Active; 'I' for Inactive)
REMARK    8  A    between atoms: CA   and  CB  
REMARK    9  A    between atoms: CB   and  CG  
REMARK   10  A    between atoms: CG   and  CD  
REMARK   11  A    between atoms: CD   and  CE  
REMARK   12  A    between atoms: CE   and  NZ  
ROOT
ATOM     19  CA  LYS A 145      61.782  26.240  90.241  1.00 28.09     0.227 C 
ENDROOT
BRANCH  19  20
ATOM     20  CB  LYS A 145      60.456  25.589  89.829  1.00 28.44     0.039 C 
BRANCH  20  21
ATOM     21  CG  LYS A 145      60.252  25.429  88.332  1.00 31.62     0.053 C 
BRANCH  21  22
ATOM     22  CD  LYS A 145      60.287  23.967  87.899  1.00 34.02     0.048 C 
BRANCH  22  23
ATOM     23  CE  LYS A 145      60.889  23.844  86.506  1.00 33.58     0.218 C 
BRANCH  23  24
ATOM     24  NZ  LYS A 145      60.978  22.446  86.054  1.00 36.75    -0.272 N 
ATOM     25  HZ3 LYS A 145      60.054  22.067  85.847  1.00  0.00     0.311 HD
ATOM     26  HZ2 LYS A 145      61.390  22.386  85.123  1.00  0.00     0.311 HD
ATOM     27  HZ1 LYS A 145      61.478  21.854  86.716  1.00  0.00     0.311 HD
ENDBRANCH  23  24
ENDBRANCH  22  23
ENDBRANCH  21  22
ENDBRANCH  20  21
ENDBRANCH  19  20
END_RES LYS A 145
BEGIN_RES ALA A 279
REMARK  0 active torsions:
REMARK  status: ('A' for Active; 'I' for Inactive)
ROOT
ATOM     28  CA  ALA A 279      58.677  22.867  81.738  1.00 30.95     0.215 C 
ATOM     29  CB  ALA A 279      59.273  21.559  81.198  1.00 29.24     0.031 C 
ENDROOT
END_RES ALA A 279
ENDMDL
MODEL 20
REMARK VINA RESULT:    -4.366      7.182      8.517
REMARK INTER + INTRA:         -13.527
REMARK INTER:                  -6.152
REMARK INTRA:                  -7.375
REMARK UNBOUND:                -7.375
REMARK SMILES C=CCOC(=O)C1=CS[C@H]2[C@@H]([C@@H](C)OC(C)=O)C(=O)N12
REMARK SMILES IDX 9 1 19 2 20 3 11 4 10 5 18 6 7 7 8 8 12 9 13 10 14 11 15 12
REMARK SMILES IDX 17 13 16 14 5 15 6 16 4 17 3 18 2 19 1 20
REMARK H PARENT
REMARK Flexibility Score: inf
ROOT
ATOM      1  S   UNL     1      67.606  21.501  77.449  1.00  0.00    -0.105 SA
ATOM      2  O   UNL     1      68.962  25.528  78.972  1.00  0.00    -0.274 OA
ATOM      3  N   UNL     1      68.283  23.286  79.273  1.00  0.00    -0.291 N 
ATOM      4  C   UNL     1      69.756  23.391  77.808  1.00  0.00     0.153 C 
ATOM      5  C   UNL     1      68.949  22.253  78.456  1.00  0.00     0.169 C 
ATOM      6  C   UNL     1      69.007  24.334  78.781  1.00  0.00     0.238 C 
ATOM      7  C   UNL     1      66.917  23.199  79.255  1.00  0.00     0.137 C 
ATOM      8  C   UNL     1      66.393  22.310  78.403  1.00  0.00     0.077 C 
ENDROOT
BRANCH   4   9
ATOM      9  C   UNL     1      69.455  23.635  76.348  1.00  0.00     0.189 C 
ATOM     10  C   UNL     1      69.683  25.096  75.975  1.00  0.00     0.054 C 
BRANCH   9  11
ATOM     11  O   UNL     1      70.301  22.812  75.544  1.00  0.00    -0.462 OA
BRANCH  11  12
ATOM     12  C   UNL     1      70.025  22.810  74.208  1.00  0.00     0.302 C 
ATOM     13  O   UNL     1      70.759  23.211  73.316  1.00  0.00    -0.253 OA
ATOM     14  C   UNL     1      68.661  22.233  73.976  1.00  0.00     0.139 C 
ENDBRANCH  11  12
ENDBRANCH   9  11
ENDBRANCH   4   9
BRANCH   7  15
ATOM     15  C   UNL     1      66.093  24.088  80.062  1.00  0.00     0.355 C 
ATOM     16  O   UNL     1      66.241  24.252  81.267  1.00  0.00    -0.244 OA
BRANCH  15  17
ATOM     17  O   UNL     1      65.164  24.678  79.263  1.00  0.00    -0.457 OA
BRANCH  17  18
ATOM     18  C   UNL     1      65.562  25.910  78.653  1.00  0.00     0.260 C 
BRANCH  18  19
ATOM     19  C   UNL     1      65.574  25.731  77.172  1.00  0.00     0.006 C 
ATOM     20  C   UNL     1      64.583  25.156  76.481  1.00  0.00     0.007 C 
ENDBRANCH  18  19
ENDBRANCH  17  18
ENDBRANCH  15  17
ENDBRANCH   7  15
TORSDOF 7
BEGIN_RES SER A  90
REMARK  2 active torsions:
REMARK  status: ('A' for Active; 'I' for Inactive)
REMARK    1  A    between atoms: CA   and  CB  
REMARK    2  A    between atoms: CB   and  OG  
ROOT
ATOM      1  CA  SER A  90      64.797  27.426  83.208  1.00 28.94     0.292 C 
ENDROOT
BRANCH   1   2
ATOM      2  CB  SER A  90      64.021  26.161  83.621  1.00 29.63     0.194 C 
BRANCH   2   3
ATOM      3  OG  SER A  90      63.858  25.250  82.548  1.00 30.29    -0.550 OA
ATOM      4  HG  SER A  90      63.529  24.406  82.834  1.00  0.00     0.310 HD
ENDBRANCH   2   3
ENDBRANCH   1   2
END_RES SER A  90
BEGIN_RES SER A  88
REMARK  2 active torsions:
REMARK  status: ('A' for Active; 'I' for Inactive)
REMARK    3  A    between atoms: CA   and  CB  
REMARK    4  A    between atoms: CB   and  OG  
ROOT
ATOM      5  CA  SER A  88      69.162  24.022  82.855  1.00 38.41     0.292 C 
ENDROOT
BRANCH   5   6
ATOM      6  CB  SER A  88      67.754  23.445  82.669  1.00 37.99     0.194 C 
BRANCH   6   7
ATOM      7  OG  SER A  88      67.790  22.041  82.488  1.00 37.76    -0.550 OA
ATOM      8  HG  SER A  88      68.146  21.602  83.252  1.00  0.00     0.310 HD
ENDBRANCH   6   7
ENDBRANCH   5   6
END_RES SER A  88
BEGIN_RES TYR A 143
REMARK  3 active torsions:
REMARK  status: ('A' for Active; 'I' for Inactive)
REMARK    5  A    between atoms: CA   and  CB  
REMARK    6  A    between atoms: CB   and  CG  
REMARK    7  A    between atoms: CZ   and  OH  
ROOT
ATOM      9  CA  TYR A 143      64.264  20.095  89.524  1.00 42.38     0.245 C 
ENDROOT
BRANCH   9  10
ATOM     10  CB  TYR A 143      62.885  20.126  88.852  1.00 47.73     0.022 C 
BRANCH  10  11
ATOM     11  CG  TYR A 143      62.899  20.267  87.349  1.00 52.08    -0.001 A 
ATOM     12  CD1 TYR A 143      64.087  20.485  86.655  1.00 55.58    -0.035 A 
ATOM     13  CE1 TYR A 143      64.102  20.593  85.262  1.00 58.22     0.100 A 
ATOM     14  CZ  TYR A 143      62.914  20.483  84.557  1.00 60.58    -0.121 A 
ATOM     15  CE2 TYR A 143      61.720  20.269  85.227  1.00 60.07     0.100 A 
ATOM     16  CD2 TYR A 143      61.721  20.162  86.617  1.00 56.72    -0.035 A 
BRANCH  14  17
ATOM     17  OH  TYR A 143      62.911  20.583  83.182  1.00 63.91    -0.368 OA
ATOM     18  HH  TYR A 143      62.449  19.941  82.656  1.00  0.00     0.339 HD
ENDBRANCH  14  17
ENDBRANCH  10  11
ENDBRANCH   9  10
END_RES TYR A 143
BEGIN_RES LYS A 145
REMARK  5 active torsions:
REMARK  status: ('A' for Active; 'I' for Inactive)
REMARK    8  A    between atoms: CA   and  CB  
REMARK    9  A    between atoms: CB   and  CG  
REMARK   10  A    between atoms: CG   and  CD  
REMARK   11  A    between atoms: CD   and  CE  
REMARK   12  A    between atoms: CE   and  NZ  
ROOT
ATOM     19  CA  LYS A 145      61.782  26.240  90.241  1.00 28.09     0.227 C 
ENDROOT
BRANCH  19  20
ATOM     20  CB  LYS A 145      60.456  25.589  89.829  1.00 28.44     0.039 C 
BRANCH  20  21
ATOM     21  CG  LYS A 145      60.279  25.372  88.336  1.00 31.62     0.053 C 
BRANCH  21  22
ATOM     22  CD  LYS A 145      60.457  23.909  87.942  1.00 34.02     0.048 C 
BRANCH  22  23
ATOM     23  CE  LYS A 145      60.942  23.807  86.502  1.00 33.58     0.218 C 
BRANCH  23  24
ATOM     24  NZ  LYS A 145      62.410  23.748  86.406  1.00 36.75    -0.272 N 
ATOM     25  HZ3 LYS A 145      62.707  23.483  85.467  1.00  0.00     0.311 HD
ATOM     26  HZ2 LYS A 145      62.819  24.681  86.449  1.00  0.00     0.311 HD
ATOM     27  HZ1 LYS A 145      62.821  23.133  87.108  1.00  0.00     0.311 HD
ENDBRANCH  23  24
ENDBRANCH  22  23
ENDBRANCH  21  22
ENDBRANCH  20  21
ENDBRANCH  19  20
END_RES LYS A 145
BEGIN_RES ALA A 279
REMARK  0 active torsions:
REMARK  status: ('A' for Active; 'I' for Inactive)
ROOT
ATOM     28  CA  ALA A 279      58.677  22.867  81.738  1.00 30.95     0.215 C 
ATOM     29  CB  ALA A 279      59.273  21.559  81.198  1.00 29.24     0.031 C 
ENDROOT
END_RES ALA A 279
ENDMDL
