MODEL 1
REMARK VINA RESULT:    -8.078      0.000      0.000
REMARK INTER + INTRA:         -14.305
REMARK INTER:                 -13.536
REMARK INTRA:                  -0.769
REMARK UNBOUND:                -1.268
WARNING: damped steplength 6.40183e-07 to 5.43688e-07
WARNING: damped steplength 6.4114e-07 to 5.43688e-07
REMARK  Name = 5287707
REMARK                            x       y       z     vdW  Elec       q    Type
REMARK                         _______ _______ _______ _____ _____    ______ ____
ROOT
ATOM      1  O   UNK A  1       -2.818  -3.225  -9.972  0.00  0.00    -0.273 OA
ATOM      2  C   UNK A  1       -2.628  -2.296  -9.189  0.00  0.00    +0.239 C 
ATOM      3  C   UNK A  1       -3.153  -2.325  -7.700  0.00  0.00    +0.192 C 
ATOM      4  C   UNK A  1       -4.683  -2.219  -7.760  0.00  0.00    -0.017 A 
ATOM      5  C   UNK A  1       -5.549  -3.317  -7.660  0.00  0.00    +0.009 A 
ATOM      6  C   UNK A  1       -6.918  -3.176  -7.909  0.00  0.00    +0.046 A 
ATOM      7  C   UNK A  1       -7.426  -1.952  -8.326  0.00  0.00    +0.125 A 
ATOM      8  C   UNK A  1       -6.576  -0.856  -8.504  0.00  0.00    +0.027 A 
ATOM      9  C   UNK A  1       -6.889   0.254  -9.405  0.00  0.00    +0.027 A 
ATOM     10  C   UNK A  1       -6.655  -0.011 -10.768  0.00  0.00    +0.016 A 
ATOM     11  C   UNK A  1       -6.599   1.010 -11.713  0.00  0.00    -0.044 A 
ATOM     12  C   UNK A  1       -6.934   2.309 -11.318  0.00  0.00    +0.007 A 
ATOM     13  C   UNK A  1       -7.235   2.580  -9.977  0.00  0.00    +0.046 A 
ATOM     14  C   UNK A  1       -5.990   0.706 -13.063  0.00  0.00    +0.063 C 
ATOM     15  C   UNK A  1       -4.444   0.454 -13.006  0.00  0.00    +0.123 C 
ATOM     16  N   UNK A  1       -3.771   1.130 -11.879  0.00  0.00    -0.306 N 
ATOM     17  H   UNK A  1       -3.899   2.105 -11.844  0.00  0.00    +0.149 HD
ATOM     18  C   ALA A  2       -3.001   0.620 -10.882  0.00  0.00    +0.234 C 
ATOM     19  CA  ALA A  2       -2.010  -0.579 -10.953  0.00  0.00    +0.156 C 
ATOM     20  CB  ALA A  2       -2.123  -1.606 -12.062  0.00  0.00    +0.038 C 
ATOM     21  O   ALA A  2       -3.024   1.288  -9.833  0.00  0.00    -0.274 OA
ATOM     22  C   UNK A  1       -7.173   1.565  -9.021  0.00  0.00    +0.125 A 
ATOM     23  C   UNK A  1       -5.226  -0.984  -8.137  0.00  0.00    +0.018 A 
ATOM     24  N   ALA A  2       -1.997  -1.124  -9.573  0.00  0.00    -0.302 N 
ATOM     25  H   ALA A  2       -1.507  -0.620  -8.885  0.00  0.00    +0.150 HD
ENDROOT
BRANCH   3  26
ATOM     26  N   UNK A  1       -2.699  -3.465  -6.885  0.00  0.00    -0.288 N 
ATOM     27  C   UNK A  0       -2.602  -4.759  -7.547  0.00  0.00    +0.133 C 
ATOM     28  C   UNK A  1       -2.302  -3.216  -5.577  0.00  0.00    +0.233 C 
ATOM     29  O   UNK A  1       -2.319  -2.076  -5.100  0.00  0.00    -0.274 OA
BRANCH  28  30
ATOM     30  C   UNK A  1       -1.734  -4.364  -4.726  0.00  0.00    +0.200 C 
BRANCH  30  31
ATOM     31  N   UNK A  1       -0.664  -3.919  -3.842  0.00  0.00    -0.305 N 
ATOM     32  H   UNK A  1        0.139  -3.511  -4.239  0.00  0.00    +0.149 HD
ATOM     33  C   UNK A  1       -0.733  -4.045  -2.472  0.00  0.00    +0.233 C 
ATOM     34  O   UNK A  1       -1.702  -4.491  -1.876  0.00  0.00    -0.274 OA
BRANCH  33  35
ATOM     35  C   UNK A  1        0.470  -3.481  -1.696  0.00  0.00    +0.156 C 
ATOM     36  C   UNK A  1        0.983  -2.259  -2.452  0.00  0.00    +0.038 C 
BRANCH  35  37
ATOM     37  N   UNK A  1       -0.025  -3.107  -0.373  0.00  0.00    -0.303 N 
ATOM     38  H   UNK A  1       -0.993  -2.936  -0.338  0.00  0.00    +0.149 HD
ATOM     39  C   UNK A  0        0.613  -2.955   0.822  0.00  0.00    +0.236 C 
ATOM     40  O   UNK A  0       -0.103  -2.652   1.779  0.00  0.00    -0.274 OA
BRANCH  39  41
ATOM     41  C   UNK A  0        2.167  -3.032   0.914  0.00  0.00    +0.187 C 
BRANCH  41  42
ATOM     42  N   UNK A  0        2.757  -4.181   1.676  0.00  0.00    -0.291 N 
ATOM     43  C   UNK A  0        3.198  -5.274   0.935  0.00  0.00    +0.213 C 
ATOM     44  O   UNK A  0        3.054  -5.314  -0.294  0.00  0.00    -0.276 OA
ATOM     45  C   UNK A  0        3.789  -6.475   1.643  0.00  0.00    +0.109 C 
ATOM     46  C   UNK A  0        3.122  -3.968   3.073  0.00  0.00    +0.133 C 
ENDBRANCH  41  42
BRANCH  41  47
ATOM     47  C   UNK A  0        2.630  -1.662   1.466  0.00  0.00    +0.187 C 
BRANCH  47  48
ATOM     48  O   UNK A  0        2.579  -0.577   0.543  0.00  0.00    -0.393 OA
ATOM     49  H   UNK A  0        2.359  -0.913  -0.340  0.00  0.00    +0.209 HD
ENDBRANCH  47  48
ENDBRANCH  41  47
ENDBRANCH  39  41
ENDBRANCH  35  37
ENDBRANCH  33  35
ENDBRANCH  30  31
ENDBRANCH  28  30
ENDBRANCH   3  26
BRANCH  15  50
ATOM     50  C   UNK A  1       -3.851   0.967 -14.305  0.00  0.00    +0.062 C 
ATOM     51  O   UNK A  1       -4.154   2.067 -14.806  0.00  0.00    -0.548 OA
ATOM     52  O   UNK A  1       -2.862   0.210 -14.815  0.00  0.00    -0.548 OA
ENDBRANCH  15  50
BRANCH  22  53
ATOM     53  O   UNK A  1       -7.343   1.935  -7.717  0.00  0.00    -0.506 OA
ATOM     54  H   UNK A  1       -6.705   1.692  -7.075  0.00  0.00    +0.292 HD
ENDBRANCH  22  53
BRANCH   7  55
ATOM     55  O   UNK A  1       -8.756  -1.904  -8.633  0.00  0.00    -0.506 OA
ATOM     56  H   UNK A  1       -9.048  -1.421  -9.381  0.00  0.00    +0.292 HD
ENDBRANCH   7  55
TORSDOF 12
ENDMDL
MODEL 2
REMARK VINA RESULT:    -7.975      3.100     11.951
REMARK INTER + INTRA:         -14.138
REMARK INTER:                 -13.188
REMARK INTRA:                  -0.950
REMARK UNBOUND:                -1.268
WARNING: damped steplength 6.40183e-07 to 5.43688e-07
WARNING: damped steplength 6.4114e-07 to 5.43688e-07
REMARK  Name = 5287707
REMARK                            x       y       z     vdW  Elec       q    Type
REMARK                         _______ _______ _______ _____ _____    ______ ____
ROOT
ATOM      1  O   UNK A  1       -0.873  -4.902  -7.470  0.00  0.00    -0.273 OA
ATOM      2  C   UNK A  1       -1.770  -4.765  -6.638  0.00  0.00    +0.239 C 
ATOM      3  C   UNK A  1       -2.376  -3.354  -6.275  0.00  0.00    +0.192 C 
ATOM      4  C   UNK A  1       -1.290  -2.578  -5.519  0.00  0.00    -0.017 A 
ATOM      5  C   UNK A  1       -0.457  -1.617  -6.110  0.00  0.00    +0.009 A 
ATOM      6  C   UNK A  1        0.632  -1.084  -5.413  0.00  0.00    +0.046 A 
ATOM      7  C   UNK A  1        0.941  -1.555  -4.142  0.00  0.00    +0.125 A 
ATOM      8  C   UNK A  1        0.172  -2.563  -3.554  0.00  0.00    +0.027 A 
ATOM      9  C   UNK A  1        0.694  -3.462  -2.523  0.00  0.00    +0.027 A 
ATOM     10  C   UNK A  1        1.499  -4.509  -3.008  0.00  0.00    +0.016 A 
ATOM     11  C   UNK A  1        1.815  -5.614  -2.222  0.00  0.00    -0.044 A 
ATOM     12  C   UNK A  1        1.446  -5.605  -0.874  0.00  0.00    +0.007 A 
ATOM     13  C   UNK A  1        0.700  -4.538  -0.356  0.00  0.00    +0.046 A 
ATOM     14  C   UNK A  1        2.359  -6.848  -2.905  0.00  0.00    +0.063 C 
ATOM     15  C   UNK A  1        1.302  -7.583  -3.800  0.00  0.00    +0.123 C 
ATOM     16  N   UNK A  1       -0.095  -7.369  -3.369  0.00  0.00    -0.306 N 
ATOM     17  H   UNK A  1       -0.285  -7.626  -2.437  0.00  0.00    +0.149 HD
ATOM     18  C   ALA A  2       -1.159  -6.875  -4.053  0.00  0.00    +0.234 C 
ATOM     19  CA  ALA A  2       -1.491  -7.048  -5.565  0.00  0.00    +0.156 C 
ATOM     20  CB  ALA A  2       -0.409  -7.435  -6.551  0.00  0.00    +0.038 C 
ATOM     21  O   ALA A  2       -2.013  -6.326  -3.334  0.00  0.00    -0.274 OA
ATOM     22  C   UNK A  1        0.293  -3.494  -1.187  0.00  0.00    +0.125 A 
ATOM     23  C   UNK A  1       -0.985  -3.002  -4.219  0.00  0.00    +0.018 A 
ATOM     24  N   ALA A  2       -2.269  -5.832  -5.909  0.00  0.00    -0.302 N 
ATOM     25  H   ALA A  2       -3.201  -5.779  -5.598  0.00  0.00    +0.150 HD
ENDROOT
BRANCH   3  26
ATOM     26  N   UNK A  1       -2.932  -2.588  -7.404  0.00  0.00    -0.288 N 
ATOM     27  C   UNK A  0       -2.499  -2.967  -8.743  0.00  0.00    +0.133 C 
ATOM     28  C   UNK A  1       -3.900  -1.629  -7.129  0.00  0.00    +0.233 C 
ATOM     29  O   UNK A  1       -4.296  -1.418  -5.977  0.00  0.00    -0.274 OA
BRANCH  28  30
ATOM     30  C   UNK A  1       -4.571  -0.876  -8.290  0.00  0.00    +0.200 C 
BRANCH  30  31
ATOM     31  N   UNK A  1       -5.688  -1.621  -8.859  0.00  0.00    -0.305 N 
ATOM     32  H   UNK A  1       -5.535  -2.155  -9.671  0.00  0.00    +0.149 HD
ATOM     33  C   UNK A  1       -6.948  -1.606  -8.303  0.00  0.00    +0.233 C 
ATOM     34  O   UNK A  1       -7.232  -1.016  -7.271  0.00  0.00    -0.274 OA
BRANCH  33  35
ATOM     35  C   UNK A  1       -7.993  -2.485  -9.013  0.00  0.00    +0.156 C 
ATOM     36  C   UNK A  1       -8.365  -3.624  -8.068  0.00  0.00    +0.038 C 
BRANCH  35  37
ATOM     37  N   UNK A  1       -9.146  -1.630  -9.281  0.00  0.00    -0.303 N 
ATOM     38  H   UNK A  1       -9.987  -1.949  -8.881  0.00  0.00    +0.149 HD
ATOM     39  C   UNK A  0       -9.267  -0.468  -9.984  0.00  0.00    +0.236 C 
ATOM     40  O   UNK A  0      -10.392   0.034 -10.003  0.00  0.00    -0.274 OA
BRANCH  39  41
ATOM     41  C   UNK A  0       -8.071   0.093 -10.813  0.00  0.00    +0.187 C 
BRANCH  41  42
ATOM     42  N   UNK A  0       -7.985   1.580 -10.980  0.00  0.00    -0.291 N 
ATOM     43  C   UNK A  0       -7.633   2.325  -9.857  0.00  0.00    +0.213 C 
ATOM     44  O   UNK A  0       -7.455   1.782  -8.759  0.00  0.00    -0.276 OA
ATOM     45  C   UNK A  0       -7.543   3.834  -9.952  0.00  0.00    +0.109 C 
ATOM     46  C   UNK A  0       -7.960   2.123 -12.334  0.00  0.00    +0.133 C 
ENDBRANCH  41  42
BRANCH  41  47
ATOM     47  C   UNK A  0       -8.109  -0.649 -12.170  0.00  0.00    +0.187 C 
BRANCH  47  48
ATOM     48  O   UNK A  0       -9.159  -1.601 -12.323  0.00  0.00    -0.393 OA
ATOM     49  H   UNK A  0       -9.477  -1.589 -13.239  0.00  0.00    +0.209 HD
ENDBRANCH  47  48
ENDBRANCH  41  47
ENDBRANCH  39  41
ENDBRANCH  35  37
ENDBRANCH  33  35
ENDBRANCH  30  31
ENDBRANCH  28  30
ENDBRANCH   3  26
BRANCH  15  50
ATOM     50  C   UNK A  1        1.608  -9.068  -3.740  0.00  0.00    +0.062 C 
ATOM     51  O   UNK A  1        0.926  -9.930  -4.326  0.00  0.00    -0.548 OA
ATOM     52  O   UNK A  1        2.759  -9.385  -3.119  0.00  0.00    -0.548 OA
ENDBRANCH  15  50
BRANCH  22  53
ATOM     53  O   UNK A  1       -0.546  -2.564  -0.642  0.00  0.00    -0.506 OA
ATOM     54  H   UNK A  1       -0.477  -2.346   0.266  0.00  0.00    +0.292 HD
ENDBRANCH  22  53
BRANCH   7  55
ATOM     55  O   UNK A  1        2.066  -1.053  -3.552  0.00  0.00    -0.506 OA
ATOM     56  H   UNK A  1        2.653  -0.514  -4.044  0.00  0.00    +0.292 HD
ENDBRANCH   7  55
TORSDOF 12
ENDMDL
MODEL 3
REMARK VINA RESULT:    -7.896      5.774     14.580
REMARK INTER + INTRA:         -14.011
REMARK INTER:                 -14.064
REMARK INTRA:                   0.053
REMARK UNBOUND:                -1.268
WARNING: damped steplength 6.40183e-07 to 5.43688e-07
WARNING: damped steplength 6.4114e-07 to 5.43688e-07
REMARK  Name = 5287707
REMARK                            x       y       z     vdW  Elec       q    Type
REMARK                         _______ _______ _______ _____ _____    ______ ____
ROOT
ATOM      1  O   UNK A  1        4.087  -6.135  -0.741  0.00  0.00    -0.273 OA
ATOM      2  C   UNK A  1        3.226  -6.458   0.076  0.00  0.00    +0.239 C 
ATOM      3  C   UNK A  1        2.161  -5.433   0.629  0.00  0.00    +0.192 C 
ATOM      4  C   UNK A  1        2.914  -4.440   1.524  0.00  0.00    -0.017 A 
ATOM      5  C   UNK A  1        3.326  -3.166   1.107  0.00  0.00    +0.009 A 
ATOM      6  C   UNK A  1        4.168  -2.387   1.907  0.00  0.00    +0.046 A 
ATOM      7  C   UNK A  1        4.662  -2.899   3.101  0.00  0.00    +0.125 A 
ATOM      8  C   UNK A  1        4.326  -4.193   3.509  0.00  0.00    +0.027 A 
ATOM      9  C   UNK A  1        5.166  -4.986   4.408  0.00  0.00    +0.027 A 
ATOM     10  C   UNK A  1        6.282  -5.586   3.795  0.00  0.00    +0.016 A 
ATOM     11  C   UNK A  1        6.998  -6.607   4.415  0.00  0.00    -0.044 A 
ATOM     12  C   UNK A  1        6.688  -6.934   5.738  0.00  0.00    +0.007 A 
ATOM     13  C   UNK A  1        5.622  -6.299   6.389  0.00  0.00    +0.046 A 
ATOM     14  C   UNK A  1        7.931  -7.443   3.570  0.00  0.00    +0.063 C 
ATOM     15  C   UNK A  1        7.186  -8.367   2.546  0.00  0.00    +0.123 C 
ATOM     16  N   UNK A  1        5.820  -8.740   2.964  0.00  0.00    -0.306 N 
ATOM     17  H   UNK A  1        5.761  -9.185   3.841  0.00  0.00    +0.149 HD
ATOM     18  C   ALA A  2        4.629  -8.567   2.332  0.00  0.00    +0.234 C 
ATOM     19  CA  ALA A  2        4.340  -8.620   0.802  0.00  0.00    +0.156 C 
ATOM     20  CB  ALA A  2        5.461  -8.437  -0.200  0.00  0.00    +0.038 C 
ATOM     21  O   ALA A  2        3.656  -8.478   3.101  0.00  0.00    -0.274 OA
ATOM     22  C   UNK A  1        4.841  -5.361   5.713  0.00  0.00    +0.125 A 
ATOM     23  C   UNK A  1        3.388  -4.915   2.754  0.00  0.00    +0.018 A 
ATOM     24  N   ALA A  2        3.167  -7.729   0.623  0.00  0.00    -0.302 N 
ATOM     25  H   ALA A  2        2.287  -8.065   0.911  0.00  0.00    +0.150 HD
ENDROOT
BRANCH   3  26
ATOM     26  N   UNK A  1        1.334  -4.759  -0.387  0.00  0.00    -0.288 N 
ATOM     27  C   UNK A  0        1.511  -5.178  -1.772  0.00  0.00    +0.133 C 
ATOM     28  C   UNK A  1        0.378  -3.849   0.046  0.00  0.00    +0.233 C 
ATOM     29  O   UNK A  1        0.211  -3.605   1.247  0.00  0.00    -0.274 OA
BRANCH  28  30
ATOM     30  C   UNK A  1       -0.567  -3.197  -0.977  0.00  0.00    +0.200 C 
BRANCH  30  31
ATOM     31  N   UNK A  1        0.095  -2.933  -2.249  0.00  0.00    -0.305 N 
ATOM     32  H   UNK A  1        1.071  -3.045  -2.307  0.00  0.00    +0.149 HD
ATOM     33  C   UNK A  1       -0.594  -2.534  -3.374  0.00  0.00    +0.233 C 
ATOM     34  O   UNK A  1       -1.808  -2.414  -3.423  0.00  0.00    -0.274 OA
BRANCH  33  35
ATOM     35  C   UNK A  1        0.263  -2.344  -4.638  0.00  0.00    +0.156 C 
ATOM     36  C   UNK A  1       -0.666  -2.407  -5.847  0.00  0.00    +0.038 C 
BRANCH  35  37
ATOM     37  N   UNK A  1        0.885  -1.027  -4.525  0.00  0.00    -0.303 N 
ATOM     38  H   UNK A  1        0.429  -0.417  -3.902  0.00  0.00    +0.149 HD
ATOM     39  C   UNK A  0        1.985  -0.491  -5.127  0.00  0.00    +0.236 C 
ATOM     40  O   UNK A  0        2.272   0.661  -4.795  0.00  0.00    -0.274 OA
BRANCH  39  41
ATOM     41  C   UNK A  0        2.732  -1.261  -6.258  0.00  0.00    +0.187 C 
BRANCH  41  42
ATOM     42  N   UNK A  0        4.202  -1.497  -6.078  0.00  0.00    -0.291 N 
ATOM     43  C   UNK A  0        4.582  -2.696  -5.479  0.00  0.00    +0.213 C 
ATOM     44  O   UNK A  0        3.737  -3.501  -5.066  0.00  0.00    -0.276 OA
ATOM     45  C   UNK A  0        6.050  -2.992  -5.252  0.00  0.00    +0.109 C 
ATOM     46  C   UNK A  0        5.134  -0.638  -6.801  0.00  0.00    +0.133 C 
ENDBRANCH  41  42
BRANCH  41  47
ATOM     47  C   UNK A  0        2.416  -0.502  -7.570  0.00  0.00    +0.187 C 
BRANCH  47  48
ATOM     48  O   UNK A  0        1.239   0.301  -7.548  0.00  0.00    -0.393 OA
ATOM     49  H   UNK A  0        0.757   0.147  -6.722  0.00  0.00    +0.209 HD
ENDBRANCH  47  48
ENDBRANCH  41  47
ENDBRANCH  39  41
ENDBRANCH  35  37
ENDBRANCH  33  35
ENDBRANCH  30  31
ENDBRANCH  28  30
ENDBRANCH   3  26
BRANCH  15  50
ATOM     50  C   UNK A  1        8.010  -9.632   2.391  0.00  0.00    +0.062 C 
ATOM     51  O   UNK A  1        9.220  -9.698   2.681  0.00  0.00    -0.548 OA
ATOM     52  O   UNK A  1        7.308 -10.727   2.049  0.00  0.00    -0.548 OA
ENDBRANCH  15  50
BRANCH  22  53
ATOM     53  O   UNK A  1        3.739  -4.890   6.367  0.00  0.00    -0.506 OA
ATOM     54  H   UNK A  1        3.809  -4.138   6.922  0.00  0.00    +0.292 HD
ENDBRANCH  22  53
BRANCH   7  55
ATOM     55  O   UNK A  1        5.546  -2.119   3.792  0.00  0.00    -0.506 OA
ATOM     56  H   UNK A  1        5.231  -1.437   4.352  0.00  0.00    +0.292 HD
ENDBRANCH   7  55
TORSDOF 12
ENDMDL
MODEL 4
REMARK VINA RESULT:    -7.870      2.494      4.439
REMARK INTER + INTRA:         -13.969
REMARK INTER:                 -13.422
REMARK INTRA:                  -0.547
REMARK UNBOUND:                -1.268
WARNING: damped steplength 6.40183e-07 to 5.43688e-07
WARNING: damped steplength 6.4114e-07 to 5.43688e-07
REMARK  Name = 5287707
REMARK                            x       y       z     vdW  Elec       q    Type
REMARK                         _______ _______ _______ _____ _____    ______ ____
ROOT
ATOM      1  O   UNK A  1       -3.260  -0.972  -9.020  0.00  0.00    -0.273 OA
ATOM      2  C   UNK A  1       -3.782  -0.931  -7.906  0.00  0.00    +0.239 C 
ATOM      3  C   UNK A  1       -3.299  -1.844  -6.713  0.00  0.00    +0.192 C 
ATOM      4  C   UNK A  1       -3.695  -3.285  -7.060  0.00  0.00    -0.017 A 
ATOM      5  C   UNK A  1       -2.815  -4.230  -7.607  0.00  0.00    +0.009 A 
ATOM      6  C   UNK A  1       -3.284  -5.463  -8.072  0.00  0.00    +0.046 A 
ATOM      7  C   UNK A  1       -4.646  -5.738  -8.058  0.00  0.00    +0.125 A 
ATOM      8  C   UNK A  1       -5.555  -4.788  -7.584  0.00  0.00    +0.027 A 
ATOM      9  C   UNK A  1       -6.958  -4.752  -8.003  0.00  0.00    +0.027 A 
ATOM     10  C   UNK A  1       -7.180  -4.176  -9.268  0.00  0.00    +0.016 A 
ATOM     11  C   UNK A  1       -8.450  -3.783  -9.681  0.00  0.00    -0.044 A 
ATOM     12  C   UNK A  1       -9.547  -4.108  -8.877  0.00  0.00    +0.007 A 
ATOM     13  C   UNK A  1       -9.351  -4.743  -7.644  0.00  0.00    +0.046 A 
ATOM     14  C   UNK A  1       -8.563  -2.853 -10.867  0.00  0.00    +0.063 C 
ATOM     15  C   UNK A  1       -8.032  -1.407 -10.579  0.00  0.00    +0.123 C 
ATOM     16  N   UNK A  1       -8.107  -1.017  -9.157  0.00  0.00    -0.306 N 
ATOM     17  H   UNK A  1       -9.006  -1.072  -8.759  0.00  0.00    +0.149 HD
ATOM     18  C   ALA A  2       -7.133  -0.593  -8.309  0.00  0.00    +0.234 C 
ATOM     19  CA  ALA A  2       -5.888   0.281  -8.641  0.00  0.00    +0.156 C 
ATOM     20  CB  ALA A  2       -5.385   0.396 -10.065  0.00  0.00    +0.038 C 
ATOM     21  O   ALA A  2       -7.356  -0.849  -7.113  0.00  0.00    -0.274 OA
ATOM     22  C   UNK A  1       -8.061  -5.026  -7.193  0.00  0.00    +0.125 A 
ATOM     23  C   UNK A  1       -5.058  -3.605  -7.014  0.00  0.00    +0.018 A 
ATOM     24  N   ALA A  2       -4.877  -0.127  -7.634  0.00  0.00    -0.302 N 
ATOM     25  H   ALA A  2       -4.992   0.194  -6.711  0.00  0.00    +0.150 HD
ENDROOT
BRANCH   3  26
ATOM     26  N   UNK A  1       -1.876  -1.723  -6.352  0.00  0.00    -0.288 N 
ATOM     27  C   UNK A  0       -1.012  -1.006  -7.282  0.00  0.00    +0.133 C 
ATOM     28  C   UNK A  1       -1.472  -2.209  -5.114  0.00  0.00    +0.233 C 
ATOM     29  O   UNK A  1       -2.273  -2.724  -4.327  0.00  0.00    -0.274 OA
BRANCH  28  30
ATOM     30  C   UNK A  1       -0.014  -2.016  -4.663  0.00  0.00    +0.200 C 
BRANCH  30  31
ATOM     31  N   UNK A  1        0.151  -2.218  -3.229  0.00  0.00    -0.305 N 
ATOM     32  H   UNK A  1       -0.273  -1.581  -2.609  0.00  0.00    +0.149 HD
ATOM     33  C   UNK A  1        0.876  -3.266  -2.707  0.00  0.00    +0.233 C 
ATOM     34  O   UNK A  1        1.400  -4.137  -3.384  0.00  0.00    -0.274 OA
BRANCH  33  35
ATOM     35  C   UNK A  1        0.907  -3.346  -1.170  0.00  0.00    +0.156 C 
ATOM     36  C   UNK A  1       -0.484  -3.754  -0.695  0.00  0.00    +0.038 C 
BRANCH  35  37
ATOM     37  N   UNK A  1        1.896  -4.364  -0.825  0.00  0.00    -0.303 N 
ATOM     38  H   UNK A  1        2.073  -5.015  -1.543  0.00  0.00    +0.149 HD
ATOM     39  C   UNK A  0        2.620  -4.575   0.310  0.00  0.00    +0.236 C 
ATOM     40  O   UNK A  0        3.407  -5.524   0.279  0.00  0.00    -0.274 OA
BRANCH  39  41
ATOM     41  C   UNK A  0        2.350  -3.737   1.597  0.00  0.00    +0.187 C 
BRANCH  41  42
ATOM     42  N   UNK A  0        3.001  -2.390   1.693  0.00  0.00    -0.291 N 
ATOM     43  C   UNK A  0        2.200  -1.327   2.103  0.00  0.00    +0.213 C 
ATOM     44  O   UNK A  0        0.992  -1.483   2.323  0.00  0.00    -0.276 OA
ATOM     45  C   UNK A  0        2.790   0.064   2.205  0.00  0.00    +0.109 C 
ATOM     46  C   UNK A  0        4.458  -2.323   1.664  0.00  0.00    +0.133 C 
ENDBRANCH  41  42
BRANCH  41  47
ATOM     47  C   UNK A  0        2.722  -4.654   2.787  0.00  0.00    +0.187 C 
BRANCH  47  48
ATOM     48  O   UNK A  0        3.063  -3.984   3.998  0.00  0.00    -0.393 OA
ATOM     49  H   UNK A  0        2.790  -4.524   4.755  0.00  0.00    +0.209 HD
ENDBRANCH  47  48
ENDBRANCH  41  47
ENDBRANCH  39  41
ENDBRANCH  35  37
ENDBRANCH  33  35
ENDBRANCH  30  31
ENDBRANCH  28  30
ENDBRANCH   3  26
BRANCH  15  50
ATOM     50  C   UNK A  1       -8.874  -0.442 -11.394  0.00  0.00    +0.062 C 
ATOM     51  O   UNK A  1       -9.780   0.257 -10.901  0.00  0.00    -0.548 OA
ATOM     52  O   UNK A  1       -8.480  -0.285 -12.671  0.00  0.00    -0.548 OA
ENDBRANCH  15  50
BRANCH  22  53
ATOM     53  O   UNK A  1       -7.945  -5.517  -5.924  0.00  0.00    -0.506 OA
ATOM     54  H   UNK A  1       -7.515  -6.337  -5.777  0.00  0.00    +0.292 HD
ENDBRANCH  22  53
BRANCH   7  55
ATOM     55  O   UNK A  1       -5.045  -6.925  -8.604  0.00  0.00    -0.506 OA
ATOM     56  H   UNK A  1       -4.573  -7.291  -9.326  0.00  0.00    +0.292 HD
ENDBRANCH   7  55
TORSDOF 12
ENDMDL
MODEL 5
REMARK VINA RESULT:    -7.821      8.724     17.239
REMARK INTER + INTRA:         -13.890
REMARK INTER:                 -12.579
REMARK INTRA:                  -1.311
REMARK UNBOUND:                -1.268
WARNING: damped steplength 6.40183e-07 to 5.43688e-07
WARNING: damped steplength 6.4114e-07 to 5.43688e-07
REMARK  Name = 5287707
REMARK                            x       y       z     vdW  Elec       q    Type
REMARK                         _______ _______ _______ _____ _____    ______ ____
ROOT
ATOM      1  O   UNK A  1        5.196  -7.864   4.242  0.00  0.00    -0.273 OA
ATOM      2  C   UNK A  1        5.864  -7.386   3.326  0.00  0.00    +0.239 C 
ATOM      3  C   UNK A  1        5.692  -7.846   1.826  0.00  0.00    +0.192 C 
ATOM      4  C   UNK A  1        6.230  -9.280   1.730  0.00  0.00    -0.017 A 
ATOM      5  C   UNK A  1        5.420 -10.424   1.749  0.00  0.00    +0.009 A 
ATOM      6  C   UNK A  1        5.983 -11.701   1.847  0.00  0.00    +0.046 A 
ATOM      7  C   UNK A  1        7.358 -11.844   1.994  0.00  0.00    +0.125 A 
ATOM      8  C   UNK A  1        8.185 -10.719   2.049  0.00  0.00    +0.027 A 
ATOM      9  C   UNK A  1        9.492 -10.726   2.708  0.00  0.00    +0.027 A 
ATOM     10  C   UNK A  1        9.445 -10.625   4.111  0.00  0.00    +0.016 A 
ATOM     11  C   UNK A  1       10.574 -10.308   4.862  0.00  0.00    -0.044 A 
ATOM     12  C   UNK A  1       11.811 -10.236   4.214  0.00  0.00    +0.007 A 
ATOM     13  C   UNK A  1       11.888 -10.400   2.825  0.00  0.00    +0.046 A 
ATOM     14  C   UNK A  1       10.381  -9.859   6.292  0.00  0.00    +0.063 C 
ATOM     15  C   UNK A  1        9.702  -8.452   6.419  0.00  0.00    +0.123 C 
ATOM     16  N   UNK A  1        9.929  -7.574   5.254  0.00  0.00    -0.306 N 
ATOM     17  H   UNK A  1       10.875  -7.412   5.035  0.00  0.00    +0.149 HD
ATOM     18  C   ALA A  2        9.040  -6.952   4.435  0.00  0.00    +0.234 C 
ATOM     19  CA  ALA A  2        7.650  -6.356   4.806  0.00  0.00    +0.156 C 
ATOM     20  CB  ALA A  2        6.933  -6.800   6.065  0.00  0.00    +0.038 C 
ATOM     21  O   ALA A  2        9.470  -6.745   3.287  0.00  0.00    -0.274 OA
ATOM     22  C   UNK A  1       10.729 -10.603   2.073  0.00  0.00    +0.125 A 
ATOM     23  C   UNK A  1        7.616  -9.453   1.832  0.00  0.00    +0.018 A 
ATOM     24  N   ALA A  2        6.864  -6.455   3.551  0.00  0.00    -0.302 N 
ATOM     25  H   ALA A  2        7.068  -5.816   2.831  0.00  0.00    +0.150 HD
ENDROOT
BRANCH   3  26
ATOM     26  N   UNK A  1        4.335  -7.716   1.269  0.00  0.00    -0.288 N 
ATOM     27  C   UNK A  0        3.239  -8.273   2.053  0.00  0.00    +0.133 C 
ATOM     28  C   UNK A  1        4.176  -6.992   0.094  0.00  0.00    +0.233 C 
ATOM     29  O   UNK A  1        5.137  -6.462  -0.476  0.00  0.00    -0.274 OA
BRANCH  28  30
ATOM     30  C   UNK A  1        2.764  -6.755  -0.466  0.00  0.00    +0.200 C 
BRANCH  30  31
ATOM     31  N   UNK A  1        2.385  -5.348  -0.433  0.00  0.00    -0.305 N 
ATOM     32  H   UNK A  1        3.006  -4.701  -0.026  0.00  0.00    +0.149 HD
ATOM     33  C   UNK A  1        1.194  -4.888  -0.949  0.00  0.00    +0.233 C 
ATOM     34  O   UNK A  1        0.378  -5.598  -1.517  0.00  0.00    -0.274 OA
BRANCH  33  35
ATOM     35  C   UNK A  1        0.982  -3.366  -0.865  0.00  0.00    +0.156 C 
ATOM     36  C   UNK A  1       -0.062  -2.980  -1.908  0.00  0.00    +0.038 C 
BRANCH  35  37
ATOM     37  N   UNK A  1        0.500  -3.086   0.486  0.00  0.00    -0.303 N 
ATOM     38  H   UNK A  1       -0.469  -3.213   0.603  0.00  0.00    +0.149 HD
ATOM     39  C   UNK A  0        1.151  -2.682   1.613  0.00  0.00    +0.236 C 
ATOM     40  O   UNK A  0        0.453  -2.556   2.621  0.00  0.00    -0.274 OA
BRANCH  39  41
ATOM     41  C   UNK A  0        2.657  -2.282   1.567  0.00  0.00    +0.187 C 
BRANCH  41  42
ATOM     42  N   UNK A  0        3.476  -2.535   2.797  0.00  0.00    -0.291 N 
ATOM     43  C   UNK A  0        3.721  -3.864   3.133  0.00  0.00    +0.213 C 
ATOM     44  O   UNK A  0        3.234  -4.791   2.473  0.00  0.00    -0.276 OA
ATOM     45  C   UNK A  0        4.528  -4.191   4.372  0.00  0.00    +0.109 C 
ATOM     46  C   UNK A  0        4.217  -1.419   3.375  0.00  0.00    +0.133 C 
ENDBRANCH  41  42
BRANCH  41  47
ATOM     47  C   UNK A  0        2.689  -0.796   1.135  0.00  0.00    +0.187 C 
BRANCH  47  48
ATOM     48  O   UNK A  0        1.874   0.086   1.902  0.00  0.00    -0.393 OA
ATOM     49  H   UNK A  0        1.319  -0.429   2.508  0.00  0.00    +0.209 HD
ENDBRANCH  47  48
ENDBRANCH  41  47
ENDBRANCH  39  41
ENDBRANCH  35  37
ENDBRANCH  33  35
ENDBRANCH  30  31
ENDBRANCH  28  30
ENDBRANCH   3  26
BRANCH  15  50
ATOM     50  C   UNK A  1       10.273  -7.781   7.654  0.00  0.00    +0.062 C 
ATOM     51  O   UNK A  1       10.618  -8.407   8.674  0.00  0.00    -0.548 OA
ATOM     52  O   UNK A  1       10.515  -6.464   7.522  0.00  0.00    -0.548 OA
ENDBRANCH  15  50
BRANCH  22  53
ATOM     53  O   UNK A  1       10.869 -10.614   0.715  0.00  0.00    -0.506 OA
ATOM     54  H   UNK A  1       10.123 -10.472   0.166  0.00  0.00    +0.292 HD
ENDBRANCH  22  53
BRANCH   7  55
ATOM     55  O   UNK A  1        7.834 -13.113   2.168  0.00  0.00    -0.506 OA
ATOM     56  H   UNK A  1        8.558 -13.416   1.657  0.00  0.00    +0.292 HD
ENDBRANCH   7  55
TORSDOF 12
ENDMDL
