WARNING: damped steplength 6.40183e-07 to 5.43688e-07
WARNING: damped steplength 6.4114e-07 to 5.43688e-07
REMARK  Name = 5287707
REMARK                            x       y       z     vdW  Elec       q    Type
REMARK                         _______ _______ _______ _____ _____    ______ ____
ROOT
ATOM      1  O   UNK A  1       -1.961  -6.338  -7.227  0.00  0.00    -0.273 OA
ATOM      2  C   UNK A  1       -2.592  -7.246  -7.766  0.00  0.00    +0.239 C 
ATOM      3  C   UNK A  1       -4.051  -7.644  -7.315  0.00  0.00    +0.192 C 
ATOM      4  C   UNK A  1       -3.933  -8.286  -5.926  0.00  0.00    -0.017 A 
ATOM      5  C   UNK A  1       -4.183  -7.608  -4.725  0.00  0.00    +0.009 A 
ATOM      6  C   UNK A  1       -3.877  -8.195  -3.493  0.00  0.00    +0.046 A 
ATOM      7  C   UNK A  1       -3.257  -9.438  -3.450  0.00  0.00    +0.125 A 
ATOM      8  C   UNK A  1       -2.932 -10.108  -4.632  0.00  0.00    +0.027 A 
ATOM      9  C   UNK A  1       -1.858 -11.099  -4.714  0.00  0.00    +0.027 A 
ATOM     10  C   UNK A  1       -0.561 -10.557  -4.792  0.00  0.00    +0.016 A 
ATOM     11  C   UNK A  1        0.532 -11.326  -5.183  0.00  0.00    -0.044 A 
ATOM     12  C   UNK A  1        0.356 -12.702  -5.355  0.00  0.00    +0.007 A 
ATOM     13  C   UNK A  1       -0.917 -13.272  -5.216  0.00  0.00    +0.046 A 
ATOM     14  C   UNK A  1        1.799 -10.613  -5.597  0.00  0.00    +0.063 C 
ATOM     15  C   UNK A  1        1.661  -9.830  -6.948  0.00  0.00    +0.123 C 
ATOM     16  N   UNK A  1        0.637 -10.384  -7.856  0.00  0.00    -0.306 N 
ATOM     17  H   UNK A  1        0.760 -11.332  -8.091  0.00  0.00    +0.149 HD
ATOM     18  C   ALA A  2       -0.449  -9.793  -8.420  0.00  0.00    +0.234 C 
ATOM     19  CA  ALA A  2       -0.595  -8.321  -8.907  0.00  0.00    +0.156 C 
ATOM     20  CB  ALA A  2        0.340  -7.245  -8.394  0.00  0.00    +0.038 C 
ATOM     21  O   ALA A  2       -1.378 -10.580  -8.675  0.00  0.00    -0.274 OA
ATOM     22  C   UNK A  1       -2.022 -12.467  -4.937  0.00  0.00    +0.125 A 
ATOM     23  C   UNK A  1       -3.351  -9.558  -5.855  0.00  0.00    +0.018 A 
ATOM     24  N   ALA A  2       -2.044  -8.033  -8.766  0.00  0.00    -0.302 N 
ATOM     25  H   ALA A  2       -2.657  -8.427  -9.428  0.00  0.00    +0.150 HD
ENDROOT
BRANCH   3  26
ATOM     26  N   UNK A  1       -5.049  -6.561  -7.351  0.00  0.00    -0.288 N 
ATOM     27  C   UNK A  0       -4.554  -5.197  -7.210  0.00  0.00    +0.133 C 
ATOM     28  C   UNK A  1       -6.371  -6.898  -7.612  0.00  0.00    +0.233 C 
ATOM     29  O   UNK A  1       -6.714  -8.068  -7.817  0.00  0.00    -0.274 OA
BRANCH  28  30
ATOM     30  C   UNK A  1       -7.424  -5.785  -7.751  0.00  0.00    +0.200 C 
BRANCH  30  31
ATOM     31  N   UNK A  1       -8.569  -5.996  -6.873  0.00  0.00    -0.305 N 
ATOM     32  H   UNK A  1       -8.479  -5.778  -5.918  0.00  0.00    +0.149 HD
ATOM     33  C   UNK A  1       -9.772  -6.488  -7.330  0.00  0.00    +0.233 C 
ATOM     34  O   UNK A  1      -10.003  -6.744  -8.502  0.00  0.00    -0.274 OA
BRANCH  33  35
ATOM     35  C   UNK A  1      -10.881  -6.605  -6.270  0.00  0.00    +0.156 C 
ATOM     36  C   UNK A  1      -11.894  -7.634  -6.763  0.00  0.00    +0.038 C 
BRANCH  35  37
ATOM     37  N   UNK A  1      -10.236  -7.055  -5.039  0.00  0.00    -0.303 N 
ATOM     38  H   UNK A  1       -9.523  -6.458  -4.716  0.00  0.00    +0.149 HD
ATOM     39  C   UNK A  0      -10.445  -8.151  -4.256  0.00  0.00    +0.236 C 
ATOM     40  O   UNK A  0       -9.740  -8.235  -3.248  0.00  0.00    -0.274 OA
BRANCH  39  41
ATOM     41  C   UNK A  0      -11.425  -9.278  -4.704  0.00  0.00    +0.187 C 
BRANCH  41  42
ATOM     42  N   UNK A  0      -12.583  -9.585  -3.802  0.00  0.00    -0.291 N 
ATOM     43  C   UNK A  0      -13.783  -9.941  -4.411  0.00  0.00    +0.213 C 
ATOM     44  O   UNK A  0      -13.898  -9.947  -5.644  0.00  0.00    -0.276 OA
ATOM     45  C   UNK A  0      -14.998 -10.248  -3.560  0.00  0.00    +0.109 C 
ATOM     46  C   UNK A  0      -12.316  -9.800  -2.384  0.00  0.00    +0.133 C 
ENDBRANCH  41  42
BRANCH  41  47
ATOM     47  C   UNK A  0      -10.546 -10.523  -4.975  0.00  0.00    +0.187 C 
BRANCH  47  48
ATOM     48  O   UNK A  0      -11.058 -11.442  -5.936  0.00  0.00    -0.393 OA
ATOM     49  H   UNK A  0      -10.442 -12.183  -6.036  0.00  0.00    +0.209 HD
ENDBRANCH  47  48
ENDBRANCH  41  47
ENDBRANCH  39  41
ENDBRANCH  35  37
ENDBRANCH  33  35
ENDBRANCH  30  31
ENDBRANCH  28  30
ENDBRANCH   3  26
BRANCH  15  50
ATOM     50  C   UNK A  1        3.008  -9.882  -7.644  0.00  0.00    +0.062 C 
ATOM     51  O   UNK A  1        3.968  -9.153  -7.328  0.00  0.00    -0.548 OA
ATOM     52  O   UNK A  1        3.145 -10.875  -8.541  0.00  0.00    -0.548 OA
ENDBRANCH  15  50
BRANCH  22  53
ATOM     53  O   UNK A  1       -3.246 -13.073  -4.954  0.00  0.00    -0.506 OA
ATOM     54  H   UNK A  1       -3.309 -13.996  -5.108  0.00  0.00    +0.292 HD
ENDBRANCH  22  53
BRANCH   7  55
ATOM     55  O   UNK A  1       -2.911  -9.916  -2.217  0.00  0.00    -0.506 OA
ATOM     56  H   UNK A  1       -3.146  -9.439  -1.446  0.00  0.00    +0.292 HD
ENDBRANCH   7  55
TORSDOF 12
