MODEL 1
REMARK VINA RESULT:    -7.280      0.000      0.000
REMARK INTER + INTRA:          -9.861
REMARK INTER:                  -9.296
REMARK INTRA:                  -0.565
REMARK UNBOUND:                -0.666
REMARK SMILES O=C(O)c1sccc1S(=O)(=O)Nc1ccc(Cl)cc1
REMARK SMILES IDX 5 1 8 2 4 3 7 4 6 5 9 6 10 7 11 8 12 9 13 11 17 12 16 13
REMARK SMILES IDX 15 14 18 15 14 16 19 17 2 18 1 19 3 20
REMARK H PARENT 12 10 3 21
REMARK Flexibility Score: inf
ROOT
ATOM      1  S   UNL     1      21.763   6.337  16.618  1.00  0.00    -0.136 S 
ATOM      2  C   UNL     1      23.767   6.850  15.155  1.00  0.00     0.113 A 
ATOM      3  C   UNL     1      23.397   6.053  16.188  1.00  0.00     0.133 A 
ATOM      4  C   UNL     1      22.757   7.704  14.682  1.00  0.00     0.035 A 
ATOM      5  C   UNL     1      21.593   7.528  15.399  1.00  0.00     0.067 A 
ENDROOT
BRANCH   2   6
ATOM      6  S   UNL     1      25.372   6.828  14.448  1.00  0.00     0.263 S 
ATOM      7  O   UNL     1      26.229   6.662  15.608  1.00  0.00    -0.201 OA
ATOM      8  O   UNL     1      25.442   8.026  13.636  1.00  0.00    -0.201 OA
BRANCH   6   9
ATOM      9  N   UNL     1      25.472   5.417  13.454  1.00  0.00    -0.280 N 
ATOM     10  H   UNL     1      25.752   4.565  13.962  1.00  0.00     0.180 HD
BRANCH   9  11
ATOM     11  C   UNL     1      24.391   5.189  12.551  1.00  0.00     0.049 A 
ATOM     12  Cl  UNL     1      20.974   4.466   9.696  1.00  0.00    -0.084 Cl
ATOM     13  C   UNL     1      22.278   4.742  10.786  1.00  0.00     0.041 A 
ATOM     14  C   UNL     1      23.100   5.857  10.621  1.00  0.00     0.022 A 
ATOM     15  C   UNL     1      22.512   3.850  11.831  1.00  0.00     0.022 A 
ATOM     16  C   UNL     1      24.156   6.079  11.504  1.00  0.00     0.028 A 
ATOM     17  C   UNL     1      23.568   4.073  12.714  1.00  0.00     0.028 A 
ENDBRANCH   9  11
ENDBRANCH   6   9
ENDBRANCH   2   6
BRANCH   3  18
ATOM     18  C   UNL     1      24.134   5.071  16.919  1.00  0.00     0.347 C 
ATOM     19  O   UNL     1      24.330   5.060  18.154  1.00  0.00    -0.245 OA
BRANCH  18  20
ATOM     20  O   UNL     1      24.647   4.074  16.129  1.00  0.00    -0.477 OA
ATOM     21  H   UNL     1      24.261   4.094  15.227  1.00  0.00     0.297 HD
ENDBRANCH  18  20
ENDBRANCH   3  18
TORSDOF 5
ENDMDL
MODEL 2
REMARK VINA RESULT:    -6.740      1.898      2.140
REMARK INTER + INTRA:          -9.179
REMARK INTER:                  -8.985
REMARK INTRA:                  -0.194
REMARK UNBOUND:                -0.666
REMARK SMILES O=C(O)c1sccc1S(=O)(=O)Nc1ccc(Cl)cc1
REMARK SMILES IDX 5 1 8 2 4 3 7 4 6 5 9 6 10 7 11 8 12 9 13 11 17 12 16 13
REMARK SMILES IDX 15 14 18 15 14 16 19 17 2 18 1 19 3 20
REMARK H PARENT 12 10 3 21
REMARK Flexibility Score: inf
ROOT
ATOM      1  S   UNL     1      24.953   7.883  17.846  1.00  0.00    -0.136 S 
ATOM      2  C   UNL     1      24.908   7.005  15.470  1.00  0.00     0.113 A 
ATOM      3  C   UNL     1      24.647   6.610  16.741  1.00  0.00     0.133 A 
ATOM      4  C   UNL     1      25.357   8.330  15.349  1.00  0.00     0.035 A 
ATOM      5  C   UNL     1      25.430   8.937  16.584  1.00  0.00     0.067 A 
ENDROOT
BRANCH   2   6
ATOM      6  S   UNL     1      24.705   5.961  14.075  1.00  0.00     0.263 S 
ATOM      7  O   UNL     1      25.788   5.008  14.229  1.00  0.00    -0.201 OA
ATOM      8  O   UNL     1      24.657   6.857  12.938  1.00  0.00    -0.201 OA
BRANCH   6   9
ATOM      9  N   UNL     1      23.192   5.145  14.267  1.00  0.00    -0.280 N 
ATOM     10  H   UNL     1      22.621   5.499  15.047  1.00  0.00     0.180 HD
BRANCH   9  11
ATOM     11  C   UNL     1      22.428   4.920  13.083  1.00  0.00     0.049 A 
ATOM     12  Cl  UNL     1      20.015   4.205   9.339  1.00  0.00    -0.084 Cl
ATOM     13  C   UNL     1      20.936   4.478  10.768  1.00  0.00     0.041 A 
ATOM     14  C   UNL     1      20.496   5.402  11.715  1.00  0.00     0.022 A 
ATOM     15  C   UNL     1      22.121   3.774  10.977  1.00  0.00     0.022 A 
ATOM     16  C   UNL     1      21.243   5.623  12.872  1.00  0.00     0.028 A 
ATOM     17  C   UNL     1      22.868   3.995  12.134  1.00  0.00     0.028 A 
ENDBRANCH   9  11
ENDBRANCH   6   9
ENDBRANCH   2   6
BRANCH   3  18
ATOM     18  C   UNL     1      24.181   5.361  17.252  1.00  0.00     0.347 C 
ATOM     19  O   UNL     1      23.378   5.200  18.198  1.00  0.00    -0.245 OA
BRANCH  18  20
ATOM     20  O   UNL     1      24.701   4.274  16.597  1.00  0.00    -0.477 OA
ATOM     21  H   UNL     1      25.467   3.894  17.079  1.00  0.00     0.297 HD
ENDBRANCH  18  20
ENDBRANCH   3  18
TORSDOF 5
ENDMDL
MODEL 3
REMARK VINA RESULT:    -6.704      1.908      2.213
REMARK INTER + INTRA:          -9.134
REMARK INTER:                  -8.877
REMARK INTRA:                  -0.257
REMARK UNBOUND:                -0.666
REMARK SMILES O=C(O)c1sccc1S(=O)(=O)Nc1ccc(Cl)cc1
REMARK SMILES IDX 5 1 8 2 4 3 7 4 6 5 9 6 10 7 11 8 12 9 13 11 17 12 16 13
REMARK SMILES IDX 15 14 18 15 14 16 19 17 2 18 1 19 3 20
REMARK H PARENT 12 10 3 21
REMARK Flexibility Score: inf
ROOT
ATOM      1  S   UNL     1      24.885   7.955  17.742  1.00  0.00    -0.136 S 
ATOM      2  C   UNL     1      24.869   7.047  15.378  1.00  0.00     0.113 A 
ATOM      3  C   UNL     1      24.600   6.666  16.651  1.00  0.00     0.133 A 
ATOM      4  C   UNL     1      25.308   8.374  15.243  1.00  0.00     0.035 A 
ATOM      5  C   UNL     1      25.365   8.997  16.471  1.00  0.00     0.067 A 
ENDROOT
BRANCH   2   6
ATOM      6  S   UNL     1      24.687   5.982  13.995  1.00  0.00     0.263 S 
ATOM      7  O   UNL     1      25.822   5.089  14.128  1.00  0.00    -0.201 OA
ATOM      8  O   UNL     1      24.564   6.866  12.853  1.00  0.00    -0.201 OA
BRANCH   6   9
ATOM      9  N   UNL     1      23.224   5.090  14.229  1.00  0.00    -0.280 N 
ATOM     10  H   UNL     1      22.677   5.389  15.049  1.00  0.00     0.180 HD
BRANCH   9  11
ATOM     11  C   UNL     1      22.413   4.870  13.076  1.00  0.00     0.049 A 
ATOM     12  Cl  UNL     1      19.848   4.175   9.430  1.00  0.00    -0.084 Cl
ATOM     13  C   UNL     1      20.827   4.441  10.822  1.00  0.00     0.041 A 
ATOM     14  C   UNL     1      22.017   3.731  10.982  1.00  0.00     0.022 A 
ATOM     15  C   UNL     1      20.429   5.364  11.787  1.00  0.00     0.022 A 
ATOM     16  C   UNL     1      22.809   3.946  12.109  1.00  0.00     0.028 A 
ATOM     17  C   UNL     1      21.221   5.579  12.915  1.00  0.00     0.028 A 
ENDBRANCH   9  11
ENDBRANCH   6   9
ENDBRANCH   2   6
BRANCH   3  18
ATOM     18  C   UNL     1      24.138   5.419  17.174  1.00  0.00     0.347 C 
ATOM     19  O   UNL     1      23.271   5.263  18.062  1.00  0.00    -0.245 OA
BRANCH  18  20
ATOM     20  O   UNL     1      24.745   4.330  16.604  1.00  0.00    -0.477 OA
ATOM     21  H   UNL     1      25.406   4.597  15.928  1.00  0.00     0.297 HD
ENDBRANCH  18  20
ENDBRANCH   3  18
TORSDOF 5
ENDMDL
MODEL 4
REMARK VINA RESULT:    -6.626      1.916      2.420
REMARK INTER + INTRA:          -9.035
REMARK INTER:                  -8.923
REMARK INTRA:                  -0.113
REMARK UNBOUND:                -0.666
REMARK SMILES O=C(O)c1sccc1S(=O)(=O)Nc1ccc(Cl)cc1
REMARK SMILES IDX 5 1 8 2 4 3 7 4 6 5 9 6 10 7 11 8 12 9 13 11 17 12 16 13
REMARK SMILES IDX 15 14 18 15 14 16 19 17 2 18 1 19 3 20
REMARK H PARENT 12 10 3 21
REMARK Flexibility Score: inf
ROOT
ATOM      1  S   UNL     1      24.838   8.031  17.006  1.00  0.00    -0.136 S 
ATOM      2  C   UNL     1      25.123   6.514  14.997  1.00  0.00     0.113 A 
ATOM      3  C   UNL     1      24.536   6.539  16.220  1.00  0.00     0.133 A 
ATOM      4  C   UNL     1      25.825   7.682  14.660  1.00  0.00     0.035 A 
ATOM      5  C   UNL     1      25.753   8.607  15.679  1.00  0.00     0.067 A 
ENDROOT
BRANCH   2   6
ATOM      6  S   UNL     1      25.022   5.142  13.908  1.00  0.00     0.263 S 
ATOM      7  O   UNL     1      25.504   4.047  14.728  1.00  0.00    -0.201 OA
ATOM      8  O   UNL     1      25.739   5.554  12.718  1.00  0.00    -0.201 OA
BRANCH   6   9
ATOM      9  N   UNL     1      23.347   4.899  13.551  1.00  0.00    -0.280 N 
ATOM     10  H   UNL     1      22.707   5.397  14.185  1.00  0.00     0.180 HD
BRANCH   9  11
ATOM     11  C   UNL     1      22.959   5.004  12.182  1.00  0.00     0.049 A 
ATOM     12  Cl  UNL     1      21.734   5.338   7.854  1.00  0.00    -0.084 Cl
ATOM     13  C   UNL     1      22.202   5.211   9.505  1.00  0.00     0.041 A 
ATOM     14  C   UNL     1      21.929   4.043  10.219  1.00  0.00     0.022 A 
ATOM     15  C   UNL     1      22.852   6.274  10.129  1.00  0.00     0.022 A 
ATOM     16  C   UNL     1      22.307   3.941  11.557  1.00  0.00     0.028 A 
ATOM     17  C   UNL     1      23.231   6.172  11.467  1.00  0.00     0.028 A 
ENDBRANCH   9  11
ENDBRANCH   6   9
ENDBRANCH   2   6
BRANCH   3  18
ATOM     18  C   UNL     1      23.750   5.557  16.898  1.00  0.00     0.347 C 
ATOM     19  O   UNL     1      24.136   4.806  17.820  1.00  0.00    -0.245 OA
BRANCH  18  20
ATOM     20  O   UNL     1      22.458   5.484  16.444  1.00  0.00    -0.477 OA
ATOM     21  H   UNL     1      22.416   5.533  15.464  1.00  0.00     0.297 HD
ENDBRANCH  18  20
ENDBRANCH   3  18
TORSDOF 5
ENDMDL
MODEL 5
REMARK VINA RESULT:    -6.495      1.857      2.347
REMARK INTER + INTRA:          -8.870
REMARK INTER:                  -8.488
REMARK INTRA:                  -0.382
REMARK UNBOUND:                -0.666
REMARK SMILES O=C(O)c1sccc1S(=O)(=O)Nc1ccc(Cl)cc1
REMARK SMILES IDX 5 1 8 2 4 3 7 4 6 5 9 6 10 7 11 8 12 9 13 11 17 12 16 13
REMARK SMILES IDX 15 14 18 15 14 16 19 17 2 18 1 19 3 20
REMARK H PARENT 12 10 3 21
REMARK Flexibility Score: inf
ROOT
ATOM      1  S   UNL     1      25.392   7.791  17.816  1.00  0.00    -0.136 S 
ATOM      2  C   UNL     1      23.758   7.279  15.949  1.00  0.00     0.113 A 
ATOM      3  C   UNL     1      24.355   6.689  17.014  1.00  0.00     0.133 A 
ATOM      4  C   UNL     1      24.115   8.622  15.748  1.00  0.00     0.035 A 
ATOM      5  C   UNL     1      25.012   9.039  16.707  1.00  0.00     0.067 A 
ENDROOT
BRANCH   2   6
ATOM      6  S   UNL     1      22.628   6.449  14.895  1.00  0.00     0.263 S 
ATOM      7  O   UNL     1      22.103   7.526  14.078  1.00  0.00    -0.201 OA
ATOM      8  O   UNL     1      21.764   5.701  15.787  1.00  0.00    -0.201 OA
BRANCH   6   9
ATOM      9  N   UNL     1      23.551   5.373  13.905  1.00  0.00    -0.280 N 
ATOM     10  H   UNL     1      23.786   4.480  14.361  1.00  0.00     0.180 HD
BRANCH   9  11
ATOM     11  C   UNL     1      23.114   5.205  12.556  1.00  0.00     0.049 A 
ATOM     12  Cl  UNL     1      21.732   4.673   8.296  1.00  0.00    -0.084 Cl
ATOM     13  C   UNL     1      22.259   4.876   9.922  1.00  0.00     0.041 A 
ATOM     14  C   UNL     1      23.165   5.888  10.240  1.00  0.00     0.022 A 
ATOM     15  C   UNL     1      21.781   4.028  10.920  1.00  0.00     0.022 A 
ATOM     16  C   UNL     1      23.592   6.052  11.557  1.00  0.00     0.028 A 
ATOM     17  C   UNL     1      22.208   4.192  12.238  1.00  0.00     0.028 A 
ENDBRANCH   9  11
ENDBRANCH   6   9
ENDBRANCH   2   6
BRANCH   3  18
ATOM     18  C   UNL     1      24.243   5.361  17.529  1.00  0.00     0.347 C 
ATOM     19  O   UNL     1      23.895   5.041  18.687  1.00  0.00    -0.245 OA
BRANCH  18  20
ATOM     20  O   UNL     1      24.560   4.391  16.612  1.00  0.00    -0.477 OA
ATOM     21  H   UNL     1      25.380   3.913  16.861  1.00  0.00     0.297 HD
ENDBRANCH  18  20
ENDBRANCH   3  18
TORSDOF 5
ENDMDL
MODEL 6
REMARK VINA RESULT:    -6.454      2.398      3.172
REMARK INTER + INTRA:          -8.818
REMARK INTER:                  -8.678
REMARK INTRA:                  -0.140
REMARK UNBOUND:                -0.666
REMARK SMILES O=C(O)c1sccc1S(=O)(=O)Nc1ccc(Cl)cc1
REMARK SMILES IDX 5 1 8 2 4 3 7 4 6 5 9 6 10 7 11 8 12 9 13 11 17 12 16 13
REMARK SMILES IDX 15 14 18 15 14 16 19 17 2 18 1 19 3 20
REMARK H PARENT 12 10 3 21
REMARK Flexibility Score: inf
ROOT
ATOM      1  S   UNL     1      21.158   6.270  20.034  1.00  0.00    -0.136 S 
ATOM      2  C   UNL     1      22.898   6.409  18.197  1.00  0.00     0.113 A 
ATOM      3  C   UNL     1      22.740   5.945  19.462  1.00  0.00     0.133 A 
ATOM      4  C   UNL     1      21.763   7.035  17.657  1.00  0.00     0.035 A 
ATOM      5  C   UNL     1      20.724   7.030  18.562  1.00  0.00     0.067 A 
ENDROOT
BRANCH   2   6
ATOM      6  S   UNL     1      24.392   6.250  17.292  1.00  0.00     0.263 S 
ATOM      7  O   UNL     1      24.491   4.817  17.088  1.00  0.00    -0.201 OA
ATOM      8  O   UNL     1      25.383   6.961  18.074  1.00  0.00    -0.201 OA
BRANCH   6   9
ATOM      9  N   UNL     1      24.149   7.032  15.768  1.00  0.00    -0.280 N 
ATOM     10  H   UNL     1      24.913   7.667  15.496  1.00  0.00     0.180 HD
BRANCH   9  11
ATOM     11  C   UNL     1      23.703   6.212  14.688  1.00  0.00     0.049 A 
ATOM     12  Cl  UNL     1      22.296   3.621  11.275  1.00  0.00    -0.084 Cl
ATOM     13  C   UNL     1      22.833   4.610  12.578  1.00  0.00     0.041 A 
ATOM     14  C   UNL     1      21.903   5.232  13.411  1.00  0.00     0.022 A 
ATOM     15  C   UNL     1      24.198   4.788  12.799  1.00  0.00     0.022 A 
ATOM     16  C   UNL     1      22.339   6.033  14.465  1.00  0.00     0.028 A 
ATOM     17  C   UNL     1      24.634   5.590  13.855  1.00  0.00     0.028 A 
ENDBRANCH   9  11
ENDBRANCH   6   9
ENDBRANCH   2   6
BRANCH   3  18
ATOM     18  C   UNL     1      23.651   5.263  20.325  1.00  0.00     0.347 C 
ATOM     19  O   UNL     1      24.762   5.687  20.713  1.00  0.00    -0.245 OA
BRANCH  18  20
ATOM     20  O   UNL     1      23.203   4.032  20.731  1.00  0.00    -0.477 OA
ATOM     21  H   UNL     1      23.417   3.335  20.073  1.00  0.00     0.297 HD
ENDBRANCH  18  20
ENDBRANCH   3  18
TORSDOF 5
ENDMDL
MODEL 7
REMARK VINA RESULT:    -6.449      3.316      5.239
REMARK INTER + INTRA:          -8.812
REMARK INTER:                  -8.568
REMARK INTRA:                  -0.243
REMARK UNBOUND:                -0.666
REMARK SMILES O=C(O)c1sccc1S(=O)(=O)Nc1ccc(Cl)cc1
REMARK SMILES IDX 5 1 8 2 4 3 7 4 6 5 9 6 10 7 11 8 12 9 13 11 17 12 16 13
REMARK SMILES IDX 15 14 18 15 14 16 19 17 2 18 1 19 3 20
REMARK H PARENT 12 10 3 21
REMARK Flexibility Score: inf
ROOT
ATOM      1  S   UNL     1      23.450   4.655  12.262  1.00  0.00    -0.136 S 
ATOM      2  C   UNL     1      24.185   6.904  13.166  1.00  0.00     0.113 A 
ATOM      3  C   UNL     1      24.483   5.585  13.263  1.00  0.00     0.133 A 
ATOM      4  C   UNL     1      23.128   7.204  12.292  1.00  0.00     0.035 A 
ATOM      5  C   UNL     1      22.625   6.055  11.721  1.00  0.00     0.067 A 
ENDROOT
BRANCH   2   6
ATOM      6  S   UNL     1      25.042   8.153  14.051  1.00  0.00     0.263 S 
ATOM      7  O   UNL     1      25.087   9.247  13.099  1.00  0.00    -0.201 OA
ATOM      8  O   UNL     1      26.260   7.518  14.513  1.00  0.00    -0.201 OA
BRANCH   6   9
ATOM      9  N   UNL     1      24.046   8.601  15.392  1.00  0.00    -0.280 N 
ATOM     10  H   UNL     1      23.077   8.833  15.135  1.00  0.00     0.180 HD
BRANCH   9  11
ATOM     11  C   UNL     1      24.126   7.777  16.556  1.00  0.00     0.049 A 
ATOM     12  Cl  UNL     1      24.375   5.173  20.231  1.00  0.00    -0.084 Cl
ATOM     13  C   UNL     1      24.280   6.167  18.828  1.00  0.00     0.041 A 
ATOM     14  C   UNL     1      25.102   7.288  18.710  1.00  0.00     0.022 A 
ATOM     15  C   UNL     1      23.381   5.851  17.810  1.00  0.00     0.022 A 
ATOM     16  C   UNL     1      25.024   8.092  17.574  1.00  0.00     0.028 A 
ATOM     17  C   UNL     1      23.303   6.656  16.674  1.00  0.00     0.028 A 
ENDBRANCH   9  11
ENDBRANCH   6   9
ENDBRANCH   2   6
BRANCH   3  18
ATOM     18  C   UNL     1      25.477   4.907  14.034  1.00  0.00     0.347 C 
ATOM     19  O   UNL     1      25.281   4.239  15.073  1.00  0.00    -0.245 OA
BRANCH  18  20
ATOM     20  O   UNL     1      26.745   5.045  13.531  1.00  0.00    -0.477 OA
ATOM     21  H   UNL     1      26.778   4.838  12.572  1.00  0.00     0.297 HD
ENDBRANCH  18  20
ENDBRANCH   3  18
TORSDOF 5
ENDMDL
MODEL 8
REMARK VINA RESULT:    -6.408      6.578      8.921
REMARK INTER + INTRA:          -8.760
REMARK INTER:                  -8.364
REMARK INTRA:                  -0.396
REMARK UNBOUND:                -0.666
REMARK SMILES O=C(O)c1sccc1S(=O)(=O)Nc1ccc(Cl)cc1
REMARK SMILES IDX 5 1 8 2 4 3 7 4 6 5 9 6 10 7 11 8 12 9 13 11 17 12 16 13
REMARK SMILES IDX 15 14 18 15 14 16 19 17 2 18 1 19 3 20
REMARK H PARENT 12 10 3 21
REMARK Flexibility Score: inf
ROOT
ATOM      1  S   UNL     1      24.184   7.521  15.887  1.00  0.00    -0.136 S 
ATOM      2  C   UNL     1      25.237   7.413  18.189  1.00  0.00     0.113 A 
ATOM      3  C   UNL     1      24.634   6.617  17.271  1.00  0.00     0.133 A 
ATOM      4  C   UNL     1      25.352   8.761  17.810  1.00  0.00     0.035 A 
ATOM      5  C   UNL     1      24.812   8.965  16.560  1.00  0.00     0.067 A 
ENDROOT
BRANCH   2   6
ATOM      6  S   UNL     1      25.832   6.826  19.731  1.00  0.00     0.263 S 
ATOM      7  O   UNL     1      26.661   5.699  19.345  1.00  0.00    -0.201 OA
ATOM      8  O   UNL     1      24.648   6.636  20.544  1.00  0.00    -0.201 OA
BRANCH   6   9
ATOM      9  N   UNL     1      26.831   8.071  20.398  1.00  0.00    -0.280 N 
ATOM     10  H   UNL     1      26.434   9.017  20.312  1.00  0.00     0.180 HD
BRANCH   9  11
ATOM     11  C   UNL     1      27.393   7.823  21.686  1.00  0.00     0.049 A 
ATOM     12  Cl  UNL     1      29.172   7.041  25.757  1.00  0.00    -0.084 Cl
ATOM     13  C   UNL     1      28.493   7.339  24.203  1.00  0.00     0.041 A 
ATOM     14  C   UNL     1      27.270   8.002  24.092  1.00  0.00     0.022 A 
ATOM     15  C   UNL     1      29.166   6.919  23.057  1.00  0.00     0.022 A 
ATOM     16  C   UNL     1      26.721   8.243  22.834  1.00  0.00     0.028 A 
ATOM     17  C   UNL     1      28.616   7.160  21.798  1.00  0.00     0.028 A 
ENDBRANCH   9  11
ENDBRANCH   6   9
ENDBRANCH   2   6
BRANCH   3  18
ATOM     18  C   UNL     1      24.345   5.218  17.296  1.00  0.00     0.347 C 
ATOM     19  O   UNL     1      24.644   4.384  16.414  1.00  0.00    -0.245 OA
BRANCH  18  20
ATOM     20  O   UNL     1      23.674   4.820  18.424  1.00  0.00    -0.477 OA
ATOM     21  H   UNL     1      23.378   5.588  18.958  1.00  0.00     0.297 HD
ENDBRANCH  18  20
ENDBRANCH   3  18
TORSDOF 5
ENDMDL
MODEL 9
REMARK VINA RESULT:    -6.288      6.392      8.798
REMARK INTER + INTRA:          -8.609
REMARK INTER:                  -8.112
REMARK INTRA:                  -0.496
REMARK UNBOUND:                -0.666
REMARK SMILES O=C(O)c1sccc1S(=O)(=O)Nc1ccc(Cl)cc1
REMARK SMILES IDX 5 1 8 2 4 3 7 4 6 5 9 6 10 7 11 8 12 9 13 11 17 12 16 13
REMARK SMILES IDX 15 14 18 15 14 16 19 17 2 18 1 19 3 20
REMARK H PARENT 12 10 3 21
REMARK Flexibility Score: inf
ROOT
ATOM      1  S   UNL     1      22.363   7.714  17.103  1.00  0.00    -0.136 S 
ATOM      2  C   UNL     1      23.833   6.760  18.932  1.00  0.00     0.113 A 
ATOM      3  C   UNL     1      23.922   7.401  17.740  1.00  0.00     0.133 A 
ATOM      4  C   UNL     1      22.522   6.504  19.364  1.00  0.00     0.035 A 
ATOM      5  C   UNL     1      21.605   6.978  18.450  1.00  0.00     0.067 A 
ENDROOT
BRANCH   2   6
ATOM      6  S   UNL     1      25.233   6.281  19.875  1.00  0.00     0.263 S 
ATOM      7  O   UNL     1      25.959   5.424  18.957  1.00  0.00    -0.201 OA
ATOM      8  O   UNL     1      24.691   5.758  21.113  1.00  0.00    -0.201 OA
BRANCH   6   9
ATOM      9  N   UNL     1      26.156   7.713  20.176  1.00  0.00    -0.280 N 
ATOM     10  H   UNL     1      25.635   8.587  20.023  1.00  0.00     0.180 HD
BRANCH   9  11
ATOM     11  C   UNL     1      26.936   7.736  21.371  1.00  0.00     0.049 A 
ATOM     12  Cl  UNL     1      29.399   7.810  25.149  1.00  0.00    -0.084 Cl
ATOM     13  C   UNL     1      28.459   7.782  23.707  1.00  0.00     0.041 A 
ATOM     14  C   UNL     1      27.194   8.369  23.688  1.00  0.00     0.022 A 
ATOM     15  C   UNL     1      28.963   7.171  22.559  1.00  0.00     0.022 A 
ATOM     16  C   UNL     1      26.433   8.345  22.520  1.00  0.00     0.028 A 
ATOM     17  C   UNL     1      28.201   7.148  21.391  1.00  0.00     0.028 A 
ENDBRANCH   9  11
ENDBRANCH   6   9
ENDBRANCH   2   6
BRANCH   3  18
ATOM     18  C   UNL     1      25.063   7.825  16.992  1.00  0.00     0.347 C 
ATOM     19  O   UNL     1      25.474   9.000  16.871  1.00  0.00    -0.245 OA
BRANCH  18  20
ATOM     20  O   UNL     1      25.724   6.795  16.373  1.00  0.00    -0.477 OA
ATOM     21  H   UNL     1      25.555   5.937  16.819  1.00  0.00     0.297 HD
ENDBRANCH  18  20
ENDBRANCH   3  18
TORSDOF 5
ENDMDL
MODEL 10
REMARK VINA RESULT:    -6.247      3.702      6.108
REMARK INTER + INTRA:          -8.557
REMARK INTER:                  -8.073
REMARK INTRA:                  -0.484
REMARK UNBOUND:                -0.666
REMARK SMILES O=C(O)c1sccc1S(=O)(=O)Nc1ccc(Cl)cc1
REMARK SMILES IDX 5 1 8 2 4 3 7 4 6 5 9 6 10 7 11 8 12 9 13 11 17 12 16 13
REMARK SMILES IDX 15 14 18 15 14 16 19 17 2 18 1 19 3 20
REMARK H PARENT 12 10 3 21
REMARK Flexibility Score: inf
ROOT
ATOM      1  S   UNL     1      23.018   6.998  11.281  1.00  0.00    -0.136 S 
ATOM      2  C   UNL     1      24.163   5.788  13.190  1.00  0.00     0.113 A 
ATOM      3  C   UNL     1      23.825   7.040  12.792  1.00  0.00     0.133 A 
ATOM      4  C   UNL     1      23.786   4.768  12.300  1.00  0.00     0.035 A 
ATOM      5  C   UNL     1      23.144   5.292  11.200  1.00  0.00     0.067 A 
ENDROOT
BRANCH   2   6
ATOM      6  S   UNL     1      25.001   5.448  14.693  1.00  0.00     0.263 S 
ATOM      7  O   UNL     1      26.134   6.352  14.639  1.00  0.00    -0.201 OA
ATOM      8  O   UNL     1      25.193   4.012  14.700  1.00  0.00    -0.201 OA
BRANCH   6   9
ATOM      9  N   UNL     1      23.948   5.924  15.981  1.00  0.00    -0.280 N 
ATOM     10  H   UNL     1      23.131   5.310  16.102  1.00  0.00     0.180 HD
BRANCH   9  11
ATOM     11  C   UNL     1      24.565   6.274  17.220  1.00  0.00     0.049 A 
ATOM     12  Cl  UNL     1      26.513   7.375  21.136  1.00  0.00    -0.084 Cl
ATOM     13  C   UNL     1      25.769   6.954  19.641  1.00  0.00     0.041 A 
ATOM     14  C   UNL     1      25.522   7.939  18.685  1.00  0.00     0.022 A 
ATOM     15  C   UNL     1      25.415   5.630  19.389  1.00  0.00     0.022 A 
ATOM     16  C   UNL     1      24.919   7.598  17.475  1.00  0.00     0.028 A 
ATOM     17  C   UNL     1      24.812   5.289  18.178  1.00  0.00     0.028 A 
ENDBRANCH   9  11
ENDBRANCH   6   9
ENDBRANCH   2   6
BRANCH   3  18
ATOM     18  C   UNL     1      24.034   8.306  13.419  1.00  0.00     0.347 C 
ATOM     19  O   UNL     1      23.193   8.951  14.083  1.00  0.00    -0.245 OA
BRANCH  18  20
ATOM     20  O   UNL     1      25.298   8.804  13.236  1.00  0.00    -0.477 OA
ATOM     21  H   UNL     1      25.837   8.730  14.054  1.00  0.00     0.297 HD
ENDBRANCH  18  20
ENDBRANCH   3  18
TORSDOF 5
ENDMDL
MODEL 11
REMARK VINA RESULT:    -6.224     11.665     13.278
REMARK INTER + INTRA:          -8.528
REMARK INTER:                  -8.010
REMARK INTRA:                  -0.518
REMARK UNBOUND:                -0.666
REMARK SMILES O=C(O)c1sccc1S(=O)(=O)Nc1ccc(Cl)cc1
REMARK SMILES IDX 5 1 8 2 4 3 7 4 6 5 9 6 10 7 11 8 12 9 13 11 17 12 16 13
REMARK SMILES IDX 15 14 18 15 14 16 19 17 2 18 1 19 3 20
REMARK H PARENT 12 10 3 21
REMARK Flexibility Score: inf
ROOT
ATOM      1  S   UNL     1      30.205  15.075  26.275  1.00  0.00    -0.136 S 
ATOM      2  C   UNL     1      30.000  12.737  25.320  1.00  0.00     0.113 A 
ATOM      3  C   UNL     1      30.861  13.785  25.359  1.00  0.00     0.133 A 
ATOM      4  C   UNL     1      28.799  12.940  26.019  1.00  0.00     0.035 A 
ATOM      5  C   UNL     1      28.775  14.190  26.598  1.00  0.00     0.067 A 
ENDROOT
BRANCH   2   6
ATOM      6  S   UNL     1      30.342  11.240  24.472  1.00  0.00     0.263 S 
ATOM      7  O   UNL     1      31.574  10.794  25.094  1.00  0.00    -0.201 OA
ATOM      8  O   UNL     1      30.300  11.587  23.066  1.00  0.00    -0.201 OA
BRANCH   6   9
ATOM      9  N   UNL     1      29.070  10.134  24.860  1.00  0.00    -0.280 N 
ATOM     10  H   UNL     1      28.318  10.544  25.433  1.00  0.00     0.180 HD
BRANCH   9  11
ATOM     11  C   UNL     1      28.572   9.327  23.794  1.00  0.00     0.049 A 
ATOM     12  Cl  UNL     1      26.997   6.775  20.425  1.00  0.00    -0.084 Cl
ATOM     13  C   UNL     1      27.597   7.749  21.711  1.00  0.00     0.041 A 
ATOM     14  C   UNL     1      28.906   7.576  22.163  1.00  0.00     0.022 A 
ATOM     15  C   UNL     1      26.776   8.709  22.299  1.00  0.00     0.022 A 
ATOM     16  C   UNL     1      29.392   8.365  23.205  1.00  0.00     0.028 A 
ATOM     17  C   UNL     1      27.263   9.499  23.341  1.00  0.00     0.028 A 
ENDBRANCH   9  11
ENDBRANCH   6   9
ENDBRANCH   2   6
BRANCH   3  18
ATOM     18  C   UNL     1      32.157  13.948  24.781  1.00  0.00     0.347 C 
ATOM     19  O   UNL     1      33.252  13.864  25.379  1.00  0.00    -0.245 OA
BRANCH  18  20
ATOM     20  O   UNL     1      32.125  14.222  23.437  1.00  0.00    -0.477 OA
ATOM     21  H   UNL     1      32.509  15.104  23.239  1.00  0.00     0.297 HD
ENDBRANCH  18  20
ENDBRANCH   3  18
TORSDOF 5
ENDMDL
MODEL 12
REMARK VINA RESULT:    -6.146      1.939      3.237
REMARK INTER + INTRA:          -8.429
REMARK INTER:                  -7.852
REMARK INTRA:                  -0.578
REMARK UNBOUND:                -0.666
REMARK SMILES O=C(O)c1sccc1S(=O)(=O)Nc1ccc(Cl)cc1
REMARK SMILES IDX 5 1 8 2 4 3 7 4 6 5 9 6 10 7 11 8 12 9 13 11 17 12 16 13
REMARK SMILES IDX 15 14 18 15 14 16 19 17 2 18 1 19 3 20
REMARK H PARENT 12 10 3 21
REMARK Flexibility Score: inf
ROOT
ATOM      1  S   UNL     1      24.834   9.250  16.720  1.00  0.00    -0.136 S 
ATOM      2  C   UNL     1      24.792   6.912  15.746  1.00  0.00     0.113 A 
ATOM      3  C   UNL     1      24.632   8.207  15.376  1.00  0.00     0.133 A 
ATOM      4  C   UNL     1      25.079   6.722  17.108  1.00  0.00     0.035 A 
ATOM      5  C   UNL     1      25.132   7.930  17.769  1.00  0.00     0.067 A 
ENDROOT
BRANCH   2   6
ATOM      6  S   UNL     1      24.658   5.567  14.628  1.00  0.00     0.263 S 
ATOM      7  O   UNL     1      25.085   4.438  15.433  1.00  0.00    -0.201 OA
ATOM      8  O   UNL     1      25.411   5.974  13.458  1.00  0.00    -0.201 OA
BRANCH   6   9
ATOM      9  N   UNL     1      22.982   5.394  14.239  1.00  0.00    -0.280 N 
ATOM     10  H   UNL     1      22.370   6.074  14.711  1.00  0.00     0.180 HD
BRANCH   9  11
ATOM     11  C   UNL     1      22.656   5.223  12.860  1.00  0.00     0.049 A 
ATOM     12  Cl  UNL     1      21.624   4.687   8.502  1.00  0.00    -0.084 Cl
ATOM     13  C   UNL     1      22.018   4.892  10.165  1.00  0.00     0.041 A 
ATOM     14  C   UNL     1      22.420   3.795  10.926  1.00  0.00     0.022 A 
ATOM     15  C   UNL     1      21.933   6.155  10.750  1.00  0.00     0.022 A 
ATOM     16  C   UNL     1      22.738   3.961  12.274  1.00  0.00     0.028 A 
ATOM     17  C   UNL     1      22.252   6.321  12.098  1.00  0.00     0.028 A 
ENDBRANCH   9  11
ENDBRANCH   6   9
ENDBRANCH   2   6
BRANCH   3  18
ATOM     18  C   UNL     1      24.340   8.783  14.103  1.00  0.00     0.347 C 
ATOM     19  O   UNL     1      23.223   9.188  13.711  1.00  0.00    -0.245 OA
BRANCH  18  20
ATOM     20  O   UNL     1      25.434   8.873  13.280  1.00  0.00    -0.477 OA
ATOM     21  H   UNL     1      25.882   9.742  13.368  1.00  0.00     0.297 HD
ENDBRANCH  18  20
ENDBRANCH   3  18
TORSDOF 5
ENDMDL
MODEL 13
REMARK VINA RESULT:    -6.143      2.032      2.922
REMARK INTER + INTRA:          -8.426
REMARK INTER:                  -7.896
REMARK INTRA:                  -0.530
REMARK UNBOUND:                -0.666
REMARK SMILES O=C(O)c1sccc1S(=O)(=O)Nc1ccc(Cl)cc1
REMARK SMILES IDX 5 1 8 2 4 3 7 4 6 5 9 6 10 7 11 8 12 9 13 11 17 12 16 13
REMARK SMILES IDX 15 14 18 15 14 16 19 17 2 18 1 19 3 20
REMARK H PARENT 12 10 3 21
REMARK Flexibility Score: inf
ROOT
ATOM      1  S   UNL     1      24.297   5.739  16.653  1.00  0.00    -0.136 S 
ATOM      2  C   UNL     1      23.477   6.873  14.540  1.00  0.00     0.113 A 
ATOM      3  C   UNL     1      24.599   6.325  15.072  1.00  0.00     0.133 A 
ATOM      4  C   UNL     1      22.353   6.838  15.381  1.00  0.00     0.035 A 
ATOM      5  C   UNL     1      22.660   6.238  16.583  1.00  0.00     0.067 A 
ENDROOT
BRANCH   2   6
ATOM      6  S   UNL     1      23.415   7.572  12.933  1.00  0.00     0.263 S 
ATOM      7  O   UNL     1      24.294   8.721  13.050  1.00  0.00    -0.201 OA
ATOM      8  O   UNL     1      22.004   7.739  12.650  1.00  0.00    -0.201 OA
BRANCH   6   9
ATOM      9  N   UNL     1      24.117   6.421  11.850  1.00  0.00    -0.280 N 
ATOM     10  H   UNL     1      24.606   5.647  12.321  1.00  0.00     0.180 HD
BRANCH   9  11
ATOM     11  C   UNL     1      23.302   5.979  10.764  1.00  0.00     0.049 A 
ATOM     12  Cl  UNL     1      20.729   4.583   7.333  1.00  0.00    -0.084 Cl
ATOM     13  C   UNL     1      21.711   5.116   8.642  1.00  0.00     0.041 A 
ATOM     14  C   UNL     1      21.781   4.361   9.813  1.00  0.00     0.022 A 
ATOM     15  C   UNL     1      22.436   6.302   8.531  1.00  0.00     0.022 A 
ATOM     16  C   UNL     1      22.576   4.794  10.874  1.00  0.00     0.028 A 
ATOM     17  C   UNL     1      23.232   6.734   9.592  1.00  0.00     0.028 A 
ENDBRANCH   9  11
ENDBRANCH   6   9
ENDBRANCH   2   6
BRANCH   3  18
ATOM     18  C   UNL     1      25.912   6.177  14.528  1.00  0.00     0.347 C 
ATOM     19  O   UNL     1      26.396   5.136  14.033  1.00  0.00    -0.245 OA
BRANCH  18  20
ATOM     20  O   UNL     1      26.660   7.326  14.587  1.00  0.00    -0.477 OA
ATOM     21  H   UNL     1      26.147   8.107  14.285  1.00  0.00     0.297 HD
ENDBRANCH  18  20
ENDBRANCH   3  18
TORSDOF 5
ENDMDL
MODEL 14
REMARK VINA RESULT:    -6.138      2.369      3.311
REMARK INTER + INTRA:          -8.420
REMARK INTER:                  -7.900
REMARK INTRA:                  -0.520
REMARK UNBOUND:                -0.666
REMARK SMILES O=C(O)c1sccc1S(=O)(=O)Nc1ccc(Cl)cc1
REMARK SMILES IDX 5 1 8 2 4 3 7 4 6 5 9 6 10 7 11 8 12 9 13 11 17 12 16 13
REMARK SMILES IDX 15 14 18 15 14 16 19 17 2 18 1 19 3 20
REMARK H PARENT 12 10 3 21
REMARK Flexibility Score: inf
ROOT
ATOM      1  S   UNL     1      23.437   6.229  19.471  1.00  0.00    -0.136 S 
ATOM      2  C   UNL     1      23.136   6.034  16.963  1.00  0.00     0.113 A 
ATOM      3  C   UNL     1      22.564   6.613  18.048  1.00  0.00     0.133 A 
ATOM      4  C   UNL     1      24.283   5.273  17.242  1.00  0.00     0.035 A 
ATOM      5  C   UNL     1      24.567   5.292  18.590  1.00  0.00     0.067 A 
ENDROOT
BRANCH   2   6
ATOM      6  S   UNL     1      22.511   6.212  15.333  1.00  0.00     0.263 S 
ATOM      7  O   UNL     1      22.724   7.621  15.062  1.00  0.00    -0.201 OA
ATOM      8  O   UNL     1      21.174   5.657  15.381  1.00  0.00    -0.201 OA
BRANCH   6   9
ATOM      9  N   UNL     1      23.522   5.268  14.295  1.00  0.00    -0.280 N 
ATOM     10  H   UNL     1      23.754   4.337  14.670  1.00  0.00     0.180 HD
BRANCH   9  11
ATOM     11  C   UNL     1      23.170   5.233  12.912  1.00  0.00     0.049 A 
ATOM     12  Cl  UNL     1      22.059   5.125   8.542  1.00  0.00    -0.084 Cl
ATOM     13  C   UNL     1      22.483   5.167  10.210  1.00  0.00     0.041 A 
ATOM     14  C   UNL     1      21.948   4.224  11.088  1.00  0.00     0.022 A 
ATOM     15  C   UNL     1      23.361   6.142  10.681  1.00  0.00     0.022 A 
ATOM     16  C   UNL     1      22.292   4.259  12.439  1.00  0.00     0.028 A 
ATOM     17  C   UNL     1      23.704   6.176  12.033  1.00  0.00     0.028 A 
ENDBRANCH   9  11
ENDBRANCH   6   9
ENDBRANCH   2   6
BRANCH   3  18
ATOM     18  C   UNL     1      21.409   7.446  18.160  1.00  0.00     0.347 C 
ATOM     19  O   UNL     1      21.399   8.665  18.440  1.00  0.00    -0.245 OA
BRANCH  18  20
ATOM     20  O   UNL     1      20.232   6.783  17.924  1.00  0.00    -0.477 OA
ATOM     21  H   UNL     1      19.856   6.409  18.750  1.00  0.00     0.297 HD
ENDBRANCH  18  20
ENDBRANCH   3  18
TORSDOF 5
ENDMDL
MODEL 15
REMARK VINA RESULT:    -6.133      2.182      2.669
REMARK INTER + INTRA:          -8.413
REMARK INTER:                  -7.963
REMARK INTRA:                  -0.450
REMARK UNBOUND:                -0.666
REMARK SMILES O=C(O)c1sccc1S(=O)(=O)Nc1ccc(Cl)cc1
REMARK SMILES IDX 5 1 8 2 4 3 7 4 6 5 9 6 10 7 11 8 12 9 13 11 17 12 16 13
REMARK SMILES IDX 15 14 18 15 14 16 19 17 2 18 1 19 3 20
REMARK H PARENT 12 10 3 21
REMARK Flexibility Score: inf
ROOT
ATOM      1  S   UNL     1      24.307   7.433  18.376  1.00  0.00    -0.136 S 
ATOM      2  C   UNL     1      25.009   7.594  15.947  1.00  0.00     0.113 A 
ATOM      3  C   UNL     1      24.460   6.719  16.826  1.00  0.00     0.133 A 
ATOM      4  C   UNL     1      25.320   8.852  16.489  1.00  0.00     0.035 A 
ATOM      5  C   UNL     1      24.985   8.905  17.824  1.00  0.00     0.067 A 
ENDROOT
BRANCH   2   6
ATOM      6  S   UNL     1      25.313   7.206  14.263  1.00  0.00     0.263 S 
ATOM      7  O   UNL     1      26.311   6.157  14.353  1.00  0.00    -0.201 OA
ATOM      8  O   UNL     1      25.620   8.475  13.634  1.00  0.00    -0.201 OA
BRANCH   6   9
ATOM      9  N   UNL     1      23.847   6.551  13.620  1.00  0.00    -0.280 N 
ATOM     10  H   UNL     1      23.060   6.553  14.285  1.00  0.00     0.180 HD
BRANCH   9  11
ATOM     11  C   UNL     1      23.467   6.984  12.314  1.00  0.00     0.049 A 
ATOM     12  Cl  UNL     1      22.266   8.354   8.188  1.00  0.00    -0.084 Cl
ATOM     13  C   UNL     1      22.724   7.832   9.763  1.00  0.00     0.041 A 
ATOM     14  C   UNL     1      23.520   6.696   9.917  1.00  0.00     0.022 A 
ATOM     15  C   UNL     1      22.300   8.544  10.884  1.00  0.00     0.022 A 
ATOM     16  C   UNL     1      23.890   6.272  11.192  1.00  0.00     0.028 A 
ATOM     17  C   UNL     1      22.671   8.120  12.161  1.00  0.00     0.028 A 
ENDBRANCH   9  11
ENDBRANCH   6   9
ENDBRANCH   2   6
BRANCH   3  18
ATOM     18  C   UNL     1      24.018   5.373  16.648  1.00  0.00     0.347 C 
ATOM     19  O   UNL     1      24.655   4.338  16.945  1.00  0.00    -0.245 OA
BRANCH  18  20
ATOM     20  O   UNL     1      22.767   5.277  16.096  1.00  0.00    -0.477 OA
ATOM     21  H   UNL     1      22.504   4.342  15.956  1.00  0.00     0.297 HD
ENDBRANCH  18  20
ENDBRANCH   3  18
TORSDOF 5
ENDMDL
MODEL 16
REMARK VINA RESULT:    -5.969      1.938      2.877
REMARK INTER + INTRA:          -8.205
REMARK INTER:                  -7.748
REMARK INTRA:                  -0.457
REMARK UNBOUND:                -0.666
REMARK SMILES O=C(O)c1sccc1S(=O)(=O)Nc1ccc(Cl)cc1
REMARK SMILES IDX 5 1 8 2 4 3 7 4 6 5 9 6 10 7 11 8 12 9 13 11 17 12 16 13
REMARK SMILES IDX 15 14 18 15 14 16 19 17 2 18 1 19 3 20
REMARK H PARENT 12 10 3 21
REMARK Flexibility Score: inf
ROOT
ATOM      1  S   UNL     1      25.449   6.963  17.555  1.00  0.00    -0.136 S 
ATOM      2  C   UNL     1      23.498   6.450  16.023  1.00  0.00     0.113 A 
ATOM      3  C   UNL     1      24.809   6.793  15.975  1.00  0.00     0.133 A 
ATOM      4  C   UNL     1      22.974   6.315  17.319  1.00  0.00     0.035 A 
ATOM      5  C   UNL     1      23.942   6.569  18.266  1.00  0.00     0.067 A 
ENDROOT
BRANCH   2   6
ATOM      6  S   UNL     1      22.518   6.189  14.591  1.00  0.00     0.263 S 
ATOM      7  O   UNL     1      22.481   7.506  13.984  1.00  0.00    -0.201 OA
ATOM      8  O   UNL     1      21.306   5.558  15.075  1.00  0.00    -0.201 OA
BRANCH   6   9
ATOM      9  N   UNL     1      23.395   5.108  13.565  1.00  0.00    -0.280 N 
ATOM     10  H   UNL     1      23.583   4.188  13.987  1.00  0.00     0.180 HD
BRANCH   9  11
ATOM     11  C   UNL     1      22.959   5.013  12.209  1.00  0.00     0.049 A 
ATOM     12  Cl  UNL     1      21.580   4.709   7.925  1.00  0.00    -0.084 Cl
ATOM     13  C   UNL     1      22.106   4.824   9.560  1.00  0.00     0.041 A 
ATOM     14  C   UNL     1      23.001   5.827   9.935  1.00  0.00     0.022 A 
ATOM     15  C   UNL     1      21.638   3.916  10.508  1.00  0.00     0.022 A 
ATOM     16  C   UNL     1      23.427   5.920  11.259  1.00  0.00     0.028 A 
ATOM     17  C   UNL     1      22.064   4.009  11.833  1.00  0.00     0.028 A 
ENDBRANCH   9  11
ENDBRANCH   6   9
ENDBRANCH   2   6
BRANCH   3  18
ATOM     18  C   UNL     1      25.675   7.016  14.861  1.00  0.00     0.347 C 
ATOM     19  O   UNL     1      25.963   8.123  14.356  1.00  0.00    -0.245 OA
BRANCH  18  20
ATOM     20  O   UNL     1      26.207   5.863  14.344  1.00  0.00    -0.477 OA
ATOM     21  H   UNL     1      25.743   5.067  14.683  1.00  0.00     0.297 HD
ENDBRANCH  18  20
ENDBRANCH   3  18
TORSDOF 5
ENDMDL
MODEL 17
REMARK VINA RESULT:    -5.904      5.148      7.464
REMARK INTER + INTRA:          -8.123
REMARK INTER:                  -7.540
REMARK INTRA:                  -0.583
REMARK UNBOUND:                -0.666
REMARK SMILES O=C(O)c1sccc1S(=O)(=O)Nc1ccc(Cl)cc1
REMARK SMILES IDX 5 1 8 2 4 3 7 4 6 5 9 6 10 7 11 8 12 9 13 11 17 12 16 13
REMARK SMILES IDX 15 14 18 15 14 16 19 17 2 18 1 19 3 20
REMARK H PARENT 12 10 3 21
REMARK Flexibility Score: inf
ROOT
ATOM      1  S   UNL     1      22.962  10.210   6.155  1.00  0.00    -0.136 S 
ATOM      2  C   UNL     1      23.103   8.791   8.249  1.00  0.00     0.113 A 
ATOM      3  C   UNL     1      23.709   8.952   7.046  1.00  0.00     0.133 A 
ATOM      4  C   UNL     1      22.031   9.666   8.487  1.00  0.00     0.035 A 
ATOM      5  C   UNL     1      21.840  10.508   7.413  1.00  0.00     0.067 A 
ENDROOT
BRANCH   2   6
ATOM      6  S   UNL     1      23.604   7.592   9.427  1.00  0.00     0.263 S 
ATOM      7  O   UNL     1      25.007   7.904   9.624  1.00  0.00    -0.201 OA
ATOM      8  O   UNL     1      23.196   6.319   8.866  1.00  0.00    -0.201 OA
BRANCH   6   9
ATOM      9  N   UNL     1      22.734   7.917  10.886  1.00  0.00    -0.280 N 
ATOM     10  H   UNL     1      21.815   7.455  10.937  1.00  0.00     0.180 HD
BRANCH   9  11
ATOM     11  C   UNL     1      23.466   7.824  12.107  1.00  0.00     0.049 A 
ATOM     12  Cl  UNL     1      25.782   7.527  15.966  1.00  0.00    -0.084 Cl
ATOM     13  C   UNL     1      24.898   7.639  14.493  1.00  0.00     0.041 A 
ATOM     14  C   UNL     1      24.490   8.887  14.020  1.00  0.00     0.022 A 
ATOM     15  C   UNL     1      24.591   6.485  13.775  1.00  0.00     0.022 A 
ATOM     16  C   UNL     1      23.774   8.977  12.827  1.00  0.00     0.028 A 
ATOM     17  C   UNL     1      23.875   6.576  12.582  1.00  0.00     0.028 A 
ENDBRANCH   9  11
ENDBRANCH   6   9
ENDBRANCH   2   6
BRANCH   3  18
ATOM     18  C   UNL     1      24.814   8.263   6.459  1.00  0.00     0.347 C 
ATOM     19  O   UNL     1      24.750   7.344   5.613  1.00  0.00    -0.245 OA
BRANCH  18  20
ATOM     20  O   UNL     1      26.033   8.701   6.910  1.00  0.00    -0.477 OA
ATOM     21  H   UNL     1      26.130   8.564   7.878  1.00  0.00     0.297 HD
ENDBRANCH  18  20
ENDBRANCH   3  18
TORSDOF 5
ENDMDL
MODEL 18
REMARK VINA RESULT:    -5.888      3.100      5.063
REMARK INTER + INTRA:          -8.104
REMARK INTER:                  -7.412
REMARK INTRA:                  -0.692
REMARK UNBOUND:                -0.666
REMARK SMILES O=C(O)c1sccc1S(=O)(=O)Nc1ccc(Cl)cc1
REMARK SMILES IDX 5 1 8 2 4 3 7 4 6 5 9 6 10 7 11 8 12 9 13 11 17 12 16 13
REMARK SMILES IDX 15 14 18 15 14 16 19 17 2 18 1 19 3 20
REMARK H PARENT 12 10 3 21
REMARK Flexibility Score: inf
ROOT
ATOM      1  S   UNL     1      23.571   4.807  12.340  1.00  0.00    -0.136 S 
ATOM      2  C   UNL     1      24.282   6.870  13.626  1.00  0.00     0.113 A 
ATOM      3  C   UNL     1      24.506   5.533  13.578  1.00  0.00     0.133 A 
ATOM      4  C   UNL     1      23.361   7.345  12.678  1.00  0.00     0.035 A 
ATOM      5  C   UNL     1      22.886   6.312  11.898  1.00  0.00     0.067 A 
ENDROOT
BRANCH   2   6
ATOM      6  S   UNL     1      25.072   7.939  14.772  1.00  0.00     0.263 S 
ATOM      7  O   UNL     1      24.373   9.194  14.571  1.00  0.00    -0.201 OA
ATOM      8  O   UNL     1      26.487   7.819  14.484  1.00  0.00    -0.201 OA
BRANCH   6   9
ATOM      9  N   UNL     1      24.723   7.334  16.354  1.00  0.00    -0.280 N 
ATOM     10  H   UNL     1      25.466   7.513  17.044  1.00  0.00     0.180 HD
BRANCH   9  11
ATOM     11  C   UNL     1      23.418   7.595  16.870  1.00  0.00     0.049 A 
ATOM     12  Cl  UNL     1      19.293   8.420  18.498  1.00  0.00    -0.084 Cl
ATOM     13  C   UNL     1      20.867   8.106  17.877  1.00  0.00     0.041 A 
ATOM     14  C   UNL     1      21.105   6.949  17.133  1.00  0.00     0.022 A 
ATOM     15  C   UNL     1      21.904   9.006  18.118  1.00  0.00     0.022 A 
ATOM     16  C   UNL     1      22.380   6.695  16.630  1.00  0.00     0.028 A 
ATOM     17  C   UNL     1      23.180   8.751  17.614  1.00  0.00     0.028 A 
ENDBRANCH   9  11
ENDBRANCH   6   9
ENDBRANCH   2   6
BRANCH   3  18
ATOM     18  C   UNL     1      25.361   4.702  14.365  1.00  0.00     0.347 C 
ATOM     19  O   UNL     1      26.526   4.352  14.074  1.00  0.00    -0.245 OA
BRANCH  18  20
ATOM     20  O   UNL     1      24.787   4.284  15.538  1.00  0.00    -0.477 OA
ATOM     21  H   UNL     1      24.357   5.027  16.015  1.00  0.00     0.297 HD
ENDBRANCH  18  20
ENDBRANCH   3  18
TORSDOF 5
ENDMDL
MODEL 19
REMARK VINA RESULT:    -5.881      2.492      3.285
REMARK INTER + INTRA:          -8.095
REMARK INTER:                  -7.581
REMARK INTRA:                  -0.514
REMARK UNBOUND:                -0.666
REMARK SMILES O=C(O)c1sccc1S(=O)(=O)Nc1ccc(Cl)cc1
REMARK SMILES IDX 5 1 8 2 4 3 7 4 6 5 9 6 10 7 11 8 12 9 13 11 17 12 16 13
REMARK SMILES IDX 15 14 18 15 14 16 19 17 2 18 1 19 3 20
REMARK H PARENT 12 10 3 21
REMARK Flexibility Score: inf
ROOT
ATOM      1  S   UNL     1      25.082   7.019  16.351  1.00  0.00    -0.136 S 
ATOM      2  C   UNL     1      23.447   6.828  14.425  1.00  0.00     0.113 A 
ATOM      3  C   UNL     1      24.586   6.262  14.896  1.00  0.00     0.133 A 
ATOM      4  C   UNL     1      22.944   7.876  15.213  1.00  0.00     0.035 A 
ATOM      5  C   UNL     1      23.748   8.091  16.311  1.00  0.00     0.067 A 
ENDROOT
BRANCH   2   6
ATOM      6  S   UNL     1      22.649   6.305  12.953  1.00  0.00     0.263 S 
ATOM      7  O   UNL     1      21.780   7.425  12.645  1.00  0.00    -0.201 OA
ATOM      8  O   UNL     1      22.100   5.001  13.266  1.00  0.00    -0.201 OA
BRANCH   6   9
ATOM      9  N   UNL     1      23.868   6.172  11.733  1.00  0.00    -0.280 N 
ATOM     10  H   UNL     1      24.470   5.343  11.832  1.00  0.00     0.180 HD
BRANCH   9  11
ATOM     11  C   UNL     1      23.457   6.398  10.385  1.00  0.00     0.049 A 
ATOM     12  Cl  UNL     1      22.155   7.110   6.125  1.00  0.00    -0.084 Cl
ATOM     13  C   UNL     1      22.652   6.838   7.751  1.00  0.00     0.041 A 
ATOM     14  C   UNL     1      23.600   7.675   8.340  1.00  0.00     0.022 A 
ATOM     15  C   UNL     1      22.106   5.781   8.479  1.00  0.00     0.022 A 
ATOM     16  C   UNL     1      24.002   7.454   9.656  1.00  0.00     0.028 A 
ATOM     17  C   UNL     1      22.508   5.560   9.796  1.00  0.00     0.028 A 
ENDBRANCH   9  11
ENDBRANCH   6   9
ENDBRANCH   2   6
BRANCH   3  18
ATOM     18  C   UNL     1      25.377   5.190  14.381  1.00  0.00     0.347 C 
ATOM     19  O   UNL     1      26.286   5.283  13.527  1.00  0.00    -0.245 OA
BRANCH  18  20
ATOM     20  O   UNL     1      25.057   3.969  14.917  1.00  0.00    -0.477 OA
ATOM     21  H   UNL     1      25.605   3.766  15.706  1.00  0.00     0.297 HD
ENDBRANCH  18  20
ENDBRANCH   3  18
TORSDOF 5
ENDMDL
MODEL 20
REMARK VINA RESULT:    -5.875      1.361      2.785
REMARK INTER + INTRA:          -8.088
REMARK INTER:                  -7.421
REMARK INTRA:                  -0.666
REMARK UNBOUND:                -0.666
REMARK SMILES O=C(O)c1sccc1S(=O)(=O)Nc1ccc(Cl)cc1
REMARK SMILES IDX 5 1 8 2 4 3 7 4 6 5 9 6 10 7 11 8 12 9 13 11 17 12 16 13
REMARK SMILES IDX 15 14 18 15 14 16 19 17 2 18 1 19 3 20
REMARK H PARENT 12 10 3 21
REMARK Flexibility Score: inf
ROOT
ATOM      1  S   UNL     1      21.598   8.326  15.529  1.00  0.00    -0.136 S 
ATOM      2  C   UNL     1      23.386   6.553  15.808  1.00  0.00     0.113 A 
ATOM      3  C   UNL     1      23.250   7.874  15.531  1.00  0.00     0.133 A 
ATOM      4  C   UNL     1      22.177   5.872  16.025  1.00  0.00     0.035 A 
ATOM      5  C   UNL     1      21.105   6.730  15.902  1.00  0.00     0.067 A 
ENDROOT
BRANCH   2   6
ATOM      6  S   UNL     1      24.939   5.741  15.895  1.00  0.00     0.263 S 
ATOM      7  O   UNL     1      24.577   4.406  16.334  1.00  0.00    -0.201 OA
ATOM      8  O   UNL     1      25.765   6.598  16.722  1.00  0.00    -0.201 OA
BRANCH   6   9
ATOM      9  N   UNL     1      25.565   5.667  14.285  1.00  0.00    -0.280 N 
ATOM     10  H   UNL     1      26.441   5.132  14.200  1.00  0.00     0.180 HD
BRANCH   9  11
ATOM     11  C   UNL     1      24.633   5.368  13.246  1.00  0.00     0.049 A 
ATOM     12  Cl  UNL     1      21.690   4.427   9.960  1.00  0.00    -0.084 Cl
ATOM     13  C   UNL     1      22.814   4.786  11.213  1.00  0.00     0.041 A 
ATOM     14  C   UNL     1      23.083   3.838  12.201  1.00  0.00     0.022 A 
ATOM     15  C   UNL     1      23.453   6.025  11.241  1.00  0.00     0.022 A 
ATOM     16  C   UNL     1      23.992   4.131  13.217  1.00  0.00     0.028 A 
ATOM     17  C   UNL     1      24.364   6.317  12.257  1.00  0.00     0.028 A 
ENDBRANCH   9  11
ENDBRANCH   6   9
ENDBRANCH   2   6
BRANCH   3  18
ATOM     18  C   UNL     1      24.232   8.875  15.260  1.00  0.00     0.347 C 
ATOM     19  O   UNL     1      24.661   9.208  14.134  1.00  0.00    -0.245 OA
BRANCH  18  20
ATOM     20  O   UNL     1      24.709   9.492  16.389  1.00  0.00    -0.477 OA
ATOM     21  H   UNL     1      24.646  10.469  16.321  1.00  0.00     0.297 HD
ENDBRANCH  18  20
ENDBRANCH   3  18
TORSDOF 5
ENDMDL
