REMARK SMILES O=C(Nc1ccc2c(c1)OC(F)(F)O2)Nc1ccc(Cl)c(C(F)(F)F)c1
REMARK SMILES IDX 20 1 16 2 21 3 26 4 17 5 19 6 18 7 22 8 23 9 24 10 25 11
REMARK SMILES IDX 15 12 2 13 1 14 3 15 4 16 9 17 5 18 8 19 6 20 10 21 7 22
REMARK SMILES IDX 11 23 14 24 12 25 13 26
REMARK H PARENT
REMARK Flexibility Score: inf
ROOT
ATOM      1  Cl  UNL     1       4.901  -4.043   4.354  1.00  0.00    -0.084 Cl
ATOM      2  C   UNL     1       3.219  -5.696   0.504  1.00  0.00     0.043 A 
ATOM      3  C   UNL     1       3.639  -3.807   1.950  1.00  0.00     0.076 A 
ATOM      4  C   UNL     1       3.124  -4.329   0.764  1.00  0.00    -0.025 A 
ATOM      5  C   UNL     1       3.829  -6.541   1.430  1.00  0.00    -0.037 A 
ATOM      6  C   UNL     1       4.250  -4.652   2.877  1.00  0.00     0.053 A 
ATOM      7  C   UNL     1       4.345  -6.020   2.616  1.00  0.00    -0.041 A 
ENDROOT
BRANCH   3   8
ATOM      8  C   UNL     1       3.519  -2.336   2.190  1.00  0.00     0.417 C 
ATOM      9  F   UNL     1       3.005  -1.672   1.116  1.00  0.00    -0.166 F 
ATOM     10  F   UNL     1       2.707  -2.022   3.241  1.00  0.00    -0.166 F 
ATOM     11  F   UNL     1       4.711  -1.731   2.464  1.00  0.00    -0.166 F 
ENDBRANCH   3   8
BRANCH   2  12
ATOM     12  N   UNL     1       2.695  -6.225  -0.699  1.00  0.00    -0.308 N 
ATOM     13  C   UNL     1       1.826  -5.603  -1.610  1.00  0.00     0.323 C 
ATOM     14  O   UNL     1       1.374  -4.468  -1.499  1.00  0.00    -0.248 OA
ATOM     15  N   UNL     1       1.545  -6.481  -2.686  1.00  0.00    -0.308 N 
BRANCH  15  16
ATOM     16  C   UNL     1       0.733  -6.261  -3.800  1.00  0.00     0.046 A 
ATOM     17  C   UNL     1      -0.647  -6.447  -3.698  1.00  0.00     0.008 A 
ATOM     18  C   UNL     1       1.314  -5.854  -5.015  1.00  0.00    -0.035 A 
ATOM     19  C   UNL     1      -1.409  -6.217  -4.825  1.00  0.00     0.174 A 
ATOM     20  C   UNL     1       0.520  -5.628  -6.141  1.00  0.00    -0.014 A 
ATOM     21  O   UNL     1      -2.762  -6.346  -4.913  1.00  0.00    -0.395 OA
ATOM     22  C   UNL     1      -0.842  -5.818  -6.015  1.00  0.00     0.172 A 
ATOM     23  C   UNL     1      -2.965  -5.985  -6.287  1.00  0.00     0.586 C 
ATOM     24  O   UNL     1      -1.766  -5.647  -6.999  1.00  0.00    -0.395 OA
ATOM     25  F   UNL     1      -3.812  -4.926  -6.336  1.00  0.00    -0.125 F 
ATOM     26  F   UNL     1      -3.569  -7.020  -6.923  1.00  0.00    -0.125 F 
ENDBRANCH  15  16
ENDBRANCH   2  12
TORSDOF 3
