MODEL 1
REMARK VINA RESULT:    -8.525      0.000      0.000
REMARK INTER + INTRA:         -10.285
REMARK INTER:                  -9.841
REMARK INTRA:                  -0.445
REMARK UNBOUND:                -0.265
REMARK SMILES O=C(Nc1ccc2c(c1)OC(F)(F)O2)Nc1ccc(Cl)c(C(F)(F)F)c1
REMARK SMILES IDX 20 1 16 2 21 3 26 4 17 5 19 6 18 7 22 8 23 9 24 10 25 11
REMARK SMILES IDX 15 12 2 13 1 14 3 15 4 16 9 17 5 18 8 19 6 20 10 21 7 22
REMARK SMILES IDX 11 23 14 24 12 25 13 26
REMARK H PARENT
REMARK Flexibility Score: inf
ROOT
ATOM      1  Cl  UNL     1       9.110  -8.974  10.013  1.00  0.00    -0.084 Cl
ATOM      2  C   UNL     1       7.298  -7.121   6.315  1.00  0.00     0.043 A 
ATOM      3  C   UNL     1       7.164  -8.721   8.121  1.00  0.00     0.076 A 
ATOM      4  C   UNL     1       6.614  -8.141   6.979  1.00  0.00    -0.025 A 
ATOM      5  C   UNL     1       8.532  -6.683   6.795  1.00  0.00    -0.037 A 
ATOM      6  C   UNL     1       8.399  -8.282   8.601  1.00  0.00     0.053 A 
ATOM      7  C   UNL     1       9.082  -7.263   7.938  1.00  0.00    -0.041 A 
ENDROOT
BRANCH   3   8
ATOM      8  C   UNL     1       6.399  -9.809   8.804  1.00  0.00     0.417 C 
ATOM      9  F   UNL     1       6.013  -9.462  10.065  1.00  0.00    -0.166 F 
ATOM     10  F   UNL     1       5.254 -10.160   8.151  1.00  0.00    -0.166 F 
ATOM     11  F   UNL     1       7.106 -10.968   8.939  1.00  0.00    -0.166 F 
ENDBRANCH   3   8
BRANCH   2  12
ATOM     12  N   UNL     1       6.740  -6.534   5.156  1.00  0.00    -0.308 N 
ATOM     13  C   UNL     1       5.626  -5.683   5.069  1.00  0.00     0.323 C 
ATOM     14  O   UNL     1       4.944  -5.308   6.017  1.00  0.00    -0.248 OA
ATOM     15  N   UNL     1       5.402  -5.317   3.719  1.00  0.00    -0.308 N 
BRANCH  15  16
ATOM     16  C   UNL     1       4.406  -4.492   3.194  1.00  0.00     0.046 A 
ATOM     17  C   UNL     1       3.474  -5.016   2.296  1.00  0.00     0.008 A 
ATOM     18  C   UNL     1       4.351  -3.139   3.576  1.00  0.00    -0.035 A 
ATOM     19  C   UNL     1       2.507  -4.162   1.805  1.00  0.00     0.174 A 
ATOM     20  C   UNL     1       3.363  -2.296   3.064  1.00  0.00    -0.014 A 
ATOM     21  O   UNL     1       1.521  -4.494   0.926  1.00  0.00    -0.395 OA
ATOM     22  C   UNL     1       2.453  -2.838   2.179  1.00  0.00     0.172 A 
ATOM     23  C   UNL     1       0.856  -3.230   0.798  1.00  0.00     0.586 C 
ATOM     24  O   UNL     1       1.427  -2.172   1.581  1.00  0.00    -0.395 OA
ATOM     25  F   UNL     1      -0.442  -3.385   1.160  1.00  0.00    -0.125 F 
ATOM     26  F   UNL     1       0.874  -2.861  -0.507  1.00  0.00    -0.125 F 
ENDBRANCH  15  16
ENDBRANCH   2  12
TORSDOF 3
ENDMDL
MODEL 2
REMARK VINA RESULT:    -8.264      3.633      9.658
REMARK INTER + INTRA:          -9.978
REMARK INTER:                  -9.470
REMARK INTRA:                  -0.507
REMARK UNBOUND:                -0.265
REMARK SMILES O=C(Nc1ccc2c(c1)OC(F)(F)O2)Nc1ccc(Cl)c(C(F)(F)F)c1
REMARK SMILES IDX 20 1 16 2 21 3 26 4 17 5 19 6 18 7 22 8 23 9 24 10 25 11
REMARK SMILES IDX 15 12 2 13 1 14 3 15 4 16 9 17 5 18 8 19 6 20 10 21 7 22
REMARK SMILES IDX 11 23 14 24 12 25 13 26
REMARK H PARENT
REMARK Flexibility Score: inf
ROOT
ATOM      1  Cl  UNL     1       2.190  -0.254   2.170  1.00  0.00    -0.084 Cl
ATOM      2  C   UNL     1       4.496  -3.910   3.476  1.00  0.00     0.043 A 
ATOM      3  C   UNL     1       2.562  -2.945   2.396  1.00  0.00     0.076 A 
ATOM      4  C   UNL     1       3.283  -4.066   2.803  1.00  0.00    -0.025 A 
ATOM      5  C   UNL     1       4.986  -2.631   3.740  1.00  0.00    -0.037 A 
ATOM      6  C   UNL     1       3.053  -1.666   2.660  1.00  0.00     0.053 A 
ATOM      7  C   UNL     1       4.265  -1.510   3.333  1.00  0.00    -0.041 A 
ENDROOT
BRANCH   3   8
ATOM      8  C   UNL     1       1.268  -3.155   1.676  1.00  0.00     0.417 C 
ATOM      9  F   UNL     1       0.980  -4.475   1.497  1.00  0.00    -0.166 F 
ATOM     10  F   UNL     1       0.192  -2.627   2.329  1.00  0.00    -0.166 F 
ATOM     11  F   UNL     1       1.242  -2.598   0.431  1.00  0.00    -0.166 F 
ENDBRANCH   3   8
BRANCH   2  12
ATOM     12  N   UNL     1       5.226  -5.048   3.890  1.00  0.00    -0.308 N 
ATOM     13  C   UNL     1       5.514  -5.460   5.201  1.00  0.00     0.323 C 
ATOM     14  O   UNL     1       5.163  -4.876   6.222  1.00  0.00    -0.248 OA
ATOM     15  N   UNL     1       6.272  -6.656   5.177  1.00  0.00    -0.308 N 
BRANCH  15  16
ATOM     16  C   UNL     1       6.764  -7.397   6.253  1.00  0.00     0.046 A 
ATOM     17  C   UNL     1       8.024  -7.103   6.778  1.00  0.00     0.008 A 
ATOM     18  C   UNL     1       5.986  -8.435   6.797  1.00  0.00    -0.035 A 
ATOM     19  C   UNL     1       8.468  -7.862   7.841  1.00  0.00     0.174 A 
ATOM     20  C   UNL     1       6.458  -9.188   7.873  1.00  0.00    -0.014 A 
ATOM     21  O   UNL     1       9.662  -7.719   8.480  1.00  0.00    -0.395 OA
ATOM     22  C   UNL     1       7.705  -8.877   8.375  1.00  0.00     0.172 A 
ATOM     23  C   UNL     1       9.553  -8.759   9.462  1.00  0.00     0.586 C 
ATOM     24  O   UNL     1       8.325  -9.500   9.414  1.00  0.00    -0.395 OA
ATOM     25  F   UNL     1       9.677  -8.205  10.695  1.00  0.00    -0.125 F 
ATOM     26  F   UNL     1      10.587  -9.622   9.298  1.00  0.00    -0.125 F 
ENDBRANCH  15  16
ENDBRANCH   2  12
TORSDOF 3
ENDMDL
MODEL 3
REMARK VINA RESULT:    -8.139      2.479      3.260
REMARK INTER + INTRA:          -9.832
REMARK INTER:                  -9.339
REMARK INTRA:                  -0.493
REMARK UNBOUND:                -0.265
REMARK SMILES O=C(Nc1ccc2c(c1)OC(F)(F)O2)Nc1ccc(Cl)c(C(F)(F)F)c1
REMARK SMILES IDX 20 1 16 2 21 3 26 4 17 5 19 6 18 7 22 8 23 9 24 10 25 11
REMARK SMILES IDX 15 12 2 13 1 14 3 15 4 16 9 17 5 18 8 19 6 20 10 21 7 22
REMARK SMILES IDX 11 23 14 24 12 25 13 26
REMARK H PARENT
REMARK Flexibility Score: inf
ROOT
ATOM      1  Cl  UNL     1       7.993 -10.463   9.126  1.00  0.00    -0.084 Cl
ATOM      2  C   UNL     1       6.468  -7.776   5.833  1.00  0.00     0.043 A 
ATOM      3  C   UNL     1       7.956  -8.140   7.702  1.00  0.00     0.076 A 
ATOM      4  C   UNL     1       7.478  -7.319   6.682  1.00  0.00    -0.025 A 
ATOM      5  C   UNL     1       5.938  -9.055   6.007  1.00  0.00    -0.037 A 
ATOM      6  C   UNL     1       7.425  -9.418   7.876  1.00  0.00     0.053 A 
ATOM      7  C   UNL     1       6.416  -9.875   7.028  1.00  0.00    -0.041 A 
ENDROOT
BRANCH   3   8
ATOM      8  C   UNL     1       9.039  -7.614   8.588  1.00  0.00     0.417 C 
ATOM      9  F   UNL     1      10.149  -8.407   8.583  1.00  0.00    -0.166 F 
ATOM     10  F   UNL     1       9.473  -6.369   8.235  1.00  0.00    -0.166 F 
ATOM     11  F   UNL     1       8.668  -7.507   9.897  1.00  0.00    -0.166 F 
ENDBRANCH   3   8
BRANCH   2  12
ATOM     12  N   UNL     1       5.983  -6.943   4.799  1.00  0.00    -0.308 N 
ATOM     13  C   UNL     1       5.224  -5.767   4.921  1.00  0.00     0.323 C 
ATOM     14  O   UNL     1       4.854  -5.268   5.978  1.00  0.00    -0.248 OA
ATOM     15  N   UNL     1       4.945  -5.237   3.637  1.00  0.00    -0.308 N 
BRANCH  15  16
ATOM     16  C   UNL     1       4.224  -4.088   3.307  1.00  0.00     0.046 A 
ATOM     17  C   UNL     1       4.777  -2.830   3.551  1.00  0.00     0.008 A 
ATOM     18  C   UNL     1       2.946  -4.210   2.733  1.00  0.00    -0.035 A 
ATOM     19  C   UNL     1       4.028  -1.723   3.208  1.00  0.00     0.174 A 
ATOM     20  C   UNL     1       2.208  -3.074   2.394  1.00  0.00    -0.014 A 
ATOM     21  O   UNL     1       4.403  -0.424   3.370  1.00  0.00    -0.395 OA
ATOM     22  C   UNL     1       2.777  -1.842   2.644  1.00  0.00     0.172 A 
ATOM     23  C   UNL     1       3.246   0.244   2.848  1.00  0.00     0.586 C 
ATOM     24  O   UNL     1       2.209  -0.633   2.383  1.00  0.00    -0.395 OA
ATOM     25  F   UNL     1       3.632   1.041   1.820  1.00  0.00    -0.125 F 
ATOM     26  F   UNL     1       2.734   1.046   3.815  1.00  0.00    -0.125 F 
ENDBRANCH  15  16
ENDBRANCH   2  12
TORSDOF 3
ENDMDL
MODEL 4
REMARK VINA RESULT:    -8.125      1.684      2.344
REMARK INTER + INTRA:          -9.814
REMARK INTER:                  -9.245
REMARK INTRA:                  -0.569
REMARK UNBOUND:                -0.265
REMARK SMILES O=C(Nc1ccc2c(c1)OC(F)(F)O2)Nc1ccc(Cl)c(C(F)(F)F)c1
REMARK SMILES IDX 20 1 16 2 21 3 26 4 17 5 19 6 18 7 22 8 23 9 24 10 25 11
REMARK SMILES IDX 15 12 2 13 1 14 3 15 4 16 9 17 5 18 8 19 6 20 10 21 7 22
REMARK SMILES IDX 11 23 14 24 12 25 13 26
REMARK H PARENT
REMARK Flexibility Score: inf
ROOT
ATOM      1  Cl  UNL     1       8.797  -9.565   9.727  1.00  0.00    -0.084 Cl
ATOM      2  C   UNL     1       7.085  -7.291   6.222  1.00  0.00     0.043 A 
ATOM      3  C   UNL     1       6.874  -9.049   7.866  1.00  0.00     0.076 A 
ATOM      4  C   UNL     1       6.355  -8.339   6.784  1.00  0.00    -0.025 A 
ATOM      5  C   UNL     1       8.334  -6.953   6.744  1.00  0.00    -0.037 A 
ATOM      6  C   UNL     1       8.123  -8.711   8.388  1.00  0.00     0.053 A 
ATOM      7  C   UNL     1       8.853  -7.664   7.826  1.00  0.00    -0.041 A 
ENDROOT
BRANCH   3   8
ATOM      8  C   UNL     1       6.059 -10.163   8.441  1.00  0.00     0.417 C 
ATOM      9  F   UNL     1       4.906 -10.378   7.746  1.00  0.00    -0.166 F 
ATOM     10  F   UNL     1       6.711 -11.362   8.454  1.00  0.00    -0.166 F 
ATOM     11  F   UNL     1       5.678  -9.948   9.733  1.00  0.00    -0.166 F 
ENDBRANCH   3   8
BRANCH   2  12
ATOM     12  N   UNL     1       6.559  -6.571   5.124  1.00  0.00    -0.308 N 
ATOM     13  C   UNL     1       5.566  -5.578   5.138  1.00  0.00     0.323 C 
ATOM     14  O   UNL     1       4.984  -5.170   6.138  1.00  0.00    -0.248 OA
ATOM     15  N   UNL     1       5.331  -5.111   3.821  1.00  0.00    -0.308 N 
BRANCH  15  16
ATOM     16  C   UNL     1       4.432  -4.134   3.391  1.00  0.00     0.046 A 
ATOM     17  C   UNL     1       4.798  -2.788   3.437  1.00  0.00     0.008 A 
ATOM     18  C   UNL     1       3.164  -4.517   2.915  1.00  0.00    -0.035 A 
ATOM     19  C   UNL     1       3.876  -1.858   3.000  1.00  0.00     0.174 A 
ATOM     20  C   UNL     1       2.249  -3.556   2.479  1.00  0.00    -0.014 A 
ATOM     21  O   UNL     1       4.056  -0.509   2.971  1.00  0.00    -0.395 OA
ATOM     22  C   UNL     1       2.635  -2.232   2.534  1.00  0.00     0.172 A 
ATOM     23  C   UNL     1       2.791  -0.093   2.439  1.00  0.00     0.586 C 
ATOM     24  O   UNL     1       1.880  -1.165   2.154  1.00  0.00    -0.395 OA
ATOM     25  F   UNL     1       3.010   0.604   1.295  1.00  0.00    -0.125 F 
ATOM     26  F   UNL     1       2.204   0.751   3.324  1.00  0.00    -0.125 F 
ENDBRANCH  15  16
ENDBRANCH   2  12
TORSDOF 3
ENDMDL
MODEL 5
REMARK VINA RESULT:    -8.004      1.899      2.414
REMARK INTER + INTRA:          -9.672
REMARK INTER:                  -9.207
REMARK INTRA:                  -0.465
REMARK UNBOUND:                -0.265
REMARK SMILES O=C(Nc1ccc2c(c1)OC(F)(F)O2)Nc1ccc(Cl)c(C(F)(F)F)c1
REMARK SMILES IDX 20 1 16 2 21 3 26 4 17 5 19 6 18 7 22 8 23 9 24 10 25 11
REMARK SMILES IDX 15 12 2 13 1 14 3 15 4 16 9 17 5 18 8 19 6 20 10 21 7 22
REMARK SMILES IDX 11 23 14 24 12 25 13 26
REMARK H PARENT
REMARK Flexibility Score: inf
ROOT
ATOM      1  Cl  UNL     1       8.825  -9.623   9.842  1.00  0.00    -0.084 Cl
ATOM      2  C   UNL     1       7.264  -7.304   6.296  1.00  0.00     0.043 A 
ATOM      3  C   UNL     1       9.037  -7.746   7.878  1.00  0.00     0.076 A 
ATOM      4  C   UNL     1       8.544  -7.037   6.783  1.00  0.00    -0.025 A 
ATOM      5  C   UNL     1       6.477  -8.281   6.906  1.00  0.00    -0.037 A 
ATOM      6  C   UNL     1       8.250  -8.723   8.487  1.00  0.00     0.053 A 
ATOM      7  C   UNL     1       6.970  -8.990   8.001  1.00  0.00    -0.041 A 
ENDROOT
BRANCH   3   8
ATOM      8  C   UNL     1      10.414  -7.431   8.367  1.00  0.00     0.417 C 
ATOM      9  F   UNL     1      10.979  -6.385   7.698  1.00  0.00    -0.166 F 
ATOM     10  F   UNL     1      10.457  -7.090   9.688  1.00  0.00    -0.166 F 
ATOM     11  F   UNL     1      11.289  -8.470   8.235  1.00  0.00    -0.166 F 
ENDBRANCH   3   8
BRANCH   2  12
ATOM     12  N   UNL     1       6.765  -6.584   5.186  1.00  0.00    -0.308 N 
ATOM     13  C   UNL     1       5.631  -5.757   5.132  1.00  0.00     0.323 C 
ATOM     14  O   UNL     1       4.875  -5.526   6.071  1.00  0.00    -0.248 OA
ATOM     15  N   UNL     1       5.484  -5.223   3.828  1.00  0.00    -0.308 N 
BRANCH  15  16
ATOM     16  C   UNL     1       4.497  -4.362   3.346  1.00  0.00     0.046 A 
ATOM     17  C   UNL     1       3.431  -4.875   2.605  1.00  0.00     0.008 A 
ATOM     18  C   UNL     1       4.587  -2.983   3.612  1.00  0.00    -0.035 A 
ATOM     19  C   UNL     1       2.480  -3.985   2.150  1.00  0.00     0.174 A 
ATOM     20  C   UNL     1       3.611  -2.103   3.140  1.00  0.00    -0.014 A 
ATOM     21  O   UNL     1       1.377  -4.301   1.417  1.00  0.00    -0.395 OA
ATOM     22  C   UNL     1       2.567  -2.635   2.411  1.00  0.00     0.172 A 
ATOM     23  C   UNL     1       0.796  -3.000   1.253  1.00  0.00     0.586 C 
ATOM     24  O   UNL     1       1.531  -1.935   1.874  1.00  0.00    -0.395 OA
ATOM     25  F   UNL     1      -0.460  -3.018   1.767  1.00  0.00    -0.125 F 
ATOM     26  F   UNL     1       0.689  -2.736  -0.074  1.00  0.00    -0.125 F 
ENDBRANCH  15  16
ENDBRANCH   2  12
TORSDOF 3
ENDMDL
