MODEL 1
REMARK VINA RESULT:    -5.722      0.000      0.000
REMARK INTER + INTRA:          -8.338
REMARK INTER:                  -8.329
REMARK INTRA:                  -0.009
REMARK UNBOUND:                -0.274
REMARK SMILES C=CCOC(=O)C1=CS[C@H]2[C@@H]([C@@H](C)OC(C)=O)C(=O)N12
REMARK SMILES IDX 9 1 8 2 7 3 20 4 10 5 11 6 18 7 19 8 5 9 6 10 4 11 3 12 2 13
REMARK SMILES IDX 1 14 12 15 13 16 14 17 15 18 17 19 16 20
REMARK H PARENT
REMARK Flexibility Score: inf
ROOT
ATOM      1  S   UNL     1      66.428  20.203  11.540  1.00  0.00    -0.105 SA
ATOM      2  C   UNL     1      65.613  20.720  10.073  1.00  0.00     0.004 C 
ATOM      3  C   UNL     1      64.992  21.903  10.132  1.00  0.00     0.137 C 
ATOM      4  N   UNL     1      65.020  22.521  11.357  1.00  0.00    -0.291 N 
ATOM      5  C   UNL     1      65.550  21.618  12.395  1.00  0.00     0.102 C 
ATOM      6  C   UNL     1      66.412  22.803  12.898  1.00  0.00     0.106 C 
ATOM      7  C   UNL     1      65.963  23.490  11.599  1.00  0.00     0.238 C 
ATOM      8  O   UNL     1      66.342  24.432  10.944  1.00  0.00    -0.274 OA
ENDROOT
BRANCH   3   9
ATOM      9  C   UNL     1      64.302  22.561   8.989  1.00  0.00     0.355 C 
ATOM     10  O   UNL     1      63.218  23.118   9.079  1.00  0.00    -0.244 OA
BRANCH   9  11
ATOM     11  O   UNL     1      65.038  22.440   7.857  1.00  0.00    -0.457 OA
BRANCH  11  12
ATOM     12  C   UNL     1      64.353  22.876   6.681  1.00  0.00     0.110 C 
BRANCH  12  13
ATOM     13  C   UNL     1      65.334  23.661   5.865  1.00  0.00    -0.054 C 
ATOM     14  C   UNL     1      65.300  24.990   5.702  1.00  0.00    -0.100 C 
ENDBRANCH  12  13
ENDBRANCH  11  12
ENDBRANCH   9  11
ENDBRANCH   3   9
BRANCH   6  15
ATOM     15  C   UNL     1      67.917  22.662  13.088  1.00  0.00     0.113 C 
ATOM     16  C   UNL     1      68.559  24.043  13.209  1.00  0.00    -0.027 C 
BRANCH  15  17
ATOM     17  O   UNL     1      68.118  21.965  14.340  1.00  0.00    -0.462 OA
BRANCH  17  18
ATOM     18  C   UNL     1      68.862  20.842  14.480  1.00  0.00     0.302 C 
ATOM     19  O   UNL     1      69.077  20.113  13.516  1.00  0.00    -0.253 OA
ATOM     20  C   UNL     1      69.424  20.539  15.836  1.00  0.00     0.034 C 
ENDBRANCH  17  18
ENDBRANCH  15  17
ENDBRANCH   6  15
TORSDOF 7
ENDMDL
MODEL 2
REMARK VINA RESULT:    -5.432      3.357      4.893
REMARK INTER + INTRA:          -7.928
REMARK INTER:                  -7.747
REMARK INTRA:                  -0.182
REMARK UNBOUND:                -0.274
REMARK SMILES C=CCOC(=O)C1=CS[C@H]2[C@@H]([C@@H](C)OC(C)=O)C(=O)N12
REMARK SMILES IDX 9 1 8 2 7 3 20 4 10 5 11 6 18 7 19 8 5 9 6 10 4 11 3 12 2 13
REMARK SMILES IDX 1 14 12 15 13 16 14 17 15 18 17 19 16 20
REMARK H PARENT
REMARK Flexibility Score: inf
ROOT
ATOM      1  S   UNL     1      65.323  21.316   6.514  1.00  0.00    -0.105 SA
ATOM      2  C   UNL     1      64.558  22.466   5.430  1.00  0.00     0.004 C 
ATOM      3  C   UNL     1      63.277  22.753   5.685  1.00  0.00     0.137 C 
ATOM      4  N   UNL     1      62.715  22.054   6.724  1.00  0.00    -0.291 N 
ATOM      5  C   UNL     1      63.607  20.974   7.182  1.00  0.00     0.102 C 
ATOM      6  C   UNL     1      63.297  21.417   8.634  1.00  0.00     0.106 C 
ATOM      7  C   UNL     1      62.645  22.637   7.965  1.00  0.00     0.238 C 
ATOM      8  O   UNL     1      62.307  23.741   8.324  1.00  0.00    -0.274 OA
ENDROOT
BRANCH   3   9
ATOM      9  C   UNL     1      62.462  23.748   4.939  1.00  0.00     0.355 C 
ATOM     10  O   UNL     1      61.241  23.783   4.965  1.00  0.00    -0.244 OA
BRANCH   9  11
ATOM     11  O   UNL     1      63.263  24.584   4.232  1.00  0.00    -0.457 OA
BRANCH  11  12
ATOM     12  C   UNL     1      62.951  24.631   2.838  1.00  0.00     0.110 C 
BRANCH  12  13
ATOM     13  C   UNL     1      64.186  25.094   2.127  1.00  0.00    -0.054 C 
ATOM     14  C   UNL     1      65.273  25.592   2.731  1.00  0.00    -0.100 C 
ENDBRANCH  12  13
ENDBRANCH  11  12
ENDBRANCH   9  11
ENDBRANCH   3   9
BRANCH   6  15
ATOM     15  C   UNL     1      64.414  21.721   9.624  1.00  0.00     0.113 C 
ATOM     16  C   UNL     1      63.831  22.335  10.895  1.00  0.00    -0.027 C 
BRANCH  15  17
ATOM     17  O   UNL     1      65.018  20.454   9.978  1.00  0.00    -0.462 OA
BRANCH  17  18
ATOM     18  C   UNL     1      66.323  20.292  10.300  1.00  0.00     0.302 C 
ATOM     19  O   UNL     1      67.151  20.028   9.433  1.00  0.00    -0.253 OA
ATOM     20  C   UNL     1      66.716  20.466  11.736  1.00  0.00     0.034 C 
ENDBRANCH  17  18
ENDBRANCH  15  17
ENDBRANCH   6  15
TORSDOF 7
ENDMDL
MODEL 3
REMARK VINA RESULT:    -5.324      3.727      6.001
REMARK INTER + INTRA:          -7.777
REMARK INTER:                  -7.497
REMARK INTRA:                  -0.279
REMARK UNBOUND:                -0.274
REMARK SMILES C=CCOC(=O)C1=CS[C@H]2[C@@H]([C@@H](C)OC(C)=O)C(=O)N12
REMARK SMILES IDX 9 1 8 2 7 3 20 4 10 5 11 6 18 7 19 8 5 9 6 10 4 11 3 12 2 13
REMARK SMILES IDX 1 14 12 15 13 16 14 17 15 18 17 19 16 20
REMARK H PARENT
REMARK Flexibility Score: inf
ROOT
ATOM      1  S   UNL     1      69.390  19.329  16.189  1.00  0.00    -0.105 SA
ATOM      2  C   UNL     1      68.706  20.900  15.809  1.00  0.00     0.004 C 
ATOM      3  C   UNL     1      68.757  21.269  14.525  1.00  0.00     0.137 C 
ATOM      4  N   UNL     1      69.400  20.393  13.687  1.00  0.00    -0.291 N 
ATOM      5  C   UNL     1      70.089  19.336  14.451  1.00  0.00     0.102 C 
ATOM      6  C   UNL     1      69.513  18.315  13.439  1.00  0.00     0.106 C 
ATOM      7  C   UNL     1      68.661  19.498  12.954  1.00  0.00     0.238 C 
ATOM      8  O   UNL     1      67.655  19.625  12.297  1.00  0.00    -0.274 OA
ENDROOT
BRANCH   3   9
ATOM      9  C   UNL     1      68.176  22.523  13.974  1.00  0.00     0.355 C 
ATOM     10  O   UNL     1      68.843  23.490  13.638  1.00  0.00    -0.244 OA
BRANCH   9  11
ATOM     11  O   UNL     1      66.824  22.435  13.916  1.00  0.00    -0.457 OA
BRANCH  11  12
ATOM     12  C   UNL     1      66.253  23.140  12.812  1.00  0.00     0.110 C 
BRANCH  12  13
ATOM     13  C   UNL     1      65.236  22.232  12.189  1.00  0.00    -0.054 C 
ATOM     14  C   UNL     1      64.088  22.641  11.633  1.00  0.00    -0.100 C 
ENDBRANCH  12  13
ENDBRANCH  11  12
ENDBRANCH   9  11
ENDBRANCH   3   9
BRANCH   6  15
ATOM     15  C   UNL     1      68.741  17.087  13.904  1.00  0.00     0.113 C 
ATOM     16  C   UNL     1      68.224  16.306  12.698  1.00  0.00    -0.027 C 
BRANCH  15  17
ATOM     17  O   UNL     1      69.680  16.244  14.612  1.00  0.00    -0.462 OA
BRANCH  17  18
ATOM     18  C   UNL     1      69.445  15.683  15.822  1.00  0.00     0.302 C 
ATOM     19  O   UNL     1      68.359  15.167  16.068  1.00  0.00    -0.253 OA
ATOM     20  C   UNL     1      70.556  15.696  16.828  1.00  0.00     0.034 C 
ENDBRANCH  17  18
ENDBRANCH  15  17
ENDBRANCH   6  15
TORSDOF 7
ENDMDL
MODEL 4
REMARK VINA RESULT:    -5.289      1.897      6.818
REMARK INTER + INTRA:          -7.727
REMARK INTER:                  -8.302
REMARK INTRA:                   0.575
REMARK UNBOUND:                -0.274
REMARK SMILES C=CCOC(=O)C1=CS[C@H]2[C@@H]([C@@H](C)OC(C)=O)C(=O)N12
REMARK SMILES IDX 9 1 8 2 7 3 20 4 10 5 11 6 18 7 19 8 5 9 6 10 4 11 3 12 2 13
REMARK SMILES IDX 1 14 12 15 13 16 14 17 15 18 17 19 16 20
REMARK H PARENT
REMARK Flexibility Score: inf
ROOT
ATOM      1  S   UNL     1      66.954  24.247  11.698  1.00  0.00    -0.105 SA
ATOM      2  C   UNL     1      68.128  23.375  12.670  1.00  0.00     0.004 C 
ATOM      3  C   UNL     1      67.678  22.283  13.296  1.00  0.00     0.137 C 
ATOM      4  N   UNL     1      66.337  22.030  13.147  1.00  0.00    -0.291 N 
ATOM      5  C   UNL     1      65.653  23.164  12.499  1.00  0.00     0.102 C 
ATOM      6  C   UNL     1      64.922  22.132  11.604  1.00  0.00     0.106 C 
ATOM      7  C   UNL     1      65.925  21.130  12.197  1.00  0.00     0.238 C 
ATOM      8  O   UNL     1      66.321  20.027  11.900  1.00  0.00    -0.274 OA
ENDROOT
BRANCH   3   9
ATOM      9  C   UNL     1      68.515  21.361  14.111  1.00  0.00     0.355 C 
ATOM     10  O   UNL     1      68.799  21.558  15.283  1.00  0.00    -0.244 OA
BRANCH   9  11
ATOM     11  O   UNL     1      68.917  20.301  13.367  1.00  0.00    -0.457 OA
BRANCH  11  12
ATOM     12  C   UNL     1      69.643  19.322  14.113  1.00  0.00     0.110 C 
BRANCH  12  13
ATOM     13  C   UNL     1      69.780  18.114  13.237  1.00  0.00    -0.054 C 
ATOM     14  C   UNL     1      69.206  17.975  12.034  1.00  0.00    -0.100 C 
ENDBRANCH  12  13
ENDBRANCH  11  12
ENDBRANCH   9  11
ENDBRANCH   3   9
BRANCH   6  15
ATOM     15  C   UNL     1      64.927  22.257  10.086  1.00  0.00     0.113 C 
ATOM     16  C   UNL     1      64.749  20.881   9.449  1.00  0.00    -0.027 C 
BRANCH  15  17
ATOM     17  O   UNL     1      63.782  23.066   9.728  1.00  0.00    -0.462 OA
BRANCH  17  18
ATOM     18  C   UNL     1      63.040  22.890   8.609  1.00  0.00     0.302 C 
ATOM     19  O   UNL     1      61.869  22.532   8.688  1.00  0.00    -0.253 OA
ATOM     20  C   UNL     1      63.690  23.167   7.287  1.00  0.00     0.034 C 
ENDBRANCH  17  18
ENDBRANCH  15  17
ENDBRANCH   6  15
TORSDOF 7
ENDMDL
MODEL 5
REMARK VINA RESULT:    -5.282      1.927      2.342
REMARK INTER + INTRA:          -7.718
REMARK INTER:                  -7.293
REMARK INTRA:                  -0.424
REMARK UNBOUND:                -0.274
REMARK SMILES C=CCOC(=O)C1=CS[C@H]2[C@@H]([C@@H](C)OC(C)=O)C(=O)N12
REMARK SMILES IDX 9 1 8 2 7 3 20 4 10 5 11 6 18 7 19 8 5 9 6 10 4 11 3 12 2 13
REMARK SMILES IDX 1 14 12 15 13 16 14 17 15 18 17 19 16 20
REMARK H PARENT
REMARK Flexibility Score: inf
ROOT
ATOM      1  S   UNL     1      67.433  20.172  11.660  1.00  0.00    -0.105 SA
ATOM      2  C   UNL     1      66.955  19.892   9.994  1.00  0.00     0.004 C 
ATOM      3  C   UNL     1      65.799  20.445   9.614  1.00  0.00     0.137 C 
ATOM      4  N   UNL     1      65.109  21.102  10.601  1.00  0.00    -0.291 N 
ATOM      5  C   UNL     1      65.709  20.852  11.924  1.00  0.00     0.102 C 
ATOM      6  C   UNL     1      65.567  22.368  12.207  1.00  0.00     0.106 C 
ATOM      7  C   UNL     1      65.228  22.465  10.711  1.00  0.00     0.238 C 
ATOM      8  O   UNL     1      65.195  23.350   9.889  1.00  0.00    -0.274 OA
ENDROOT
BRANCH   3   9
ATOM      9  C   UNL     1      65.242  20.393   8.235  1.00  0.00     0.355 C 
ATOM     10  O   UNL     1      65.868  20.718   7.236  1.00  0.00    -0.244 OA
BRANCH   9  11
ATOM     11  O   UNL     1      63.960  19.951   8.256  1.00  0.00    -0.457 OA
BRANCH  11  12
ATOM     12  C   UNL     1      63.101  20.646   7.350  1.00  0.00     0.110 C 
BRANCH  12  13
ATOM     13  C   UNL     1      62.493  21.787   8.107  1.00  0.00    -0.054 C 
ATOM     14  C   UNL     1      62.552  23.071   7.729  1.00  0.00    -0.100 C 
ENDBRANCH  12  13
ENDBRANCH  11  12
ENDBRANCH   9  11
ENDBRANCH   3   9
BRANCH   6  15
ATOM     15  C   UNL     1      66.754  23.201  12.674  1.00  0.00     0.113 C 
ATOM     16  C   UNL     1      66.325  24.653  12.877  1.00  0.00    -0.027 C 
BRANCH  15  17
ATOM     17  O   UNL     1      67.159  22.671  13.958  1.00  0.00    -0.462 OA
BRANCH  17  18
ATOM     18  C   UNL     1      68.445  22.463  14.329  1.00  0.00     0.302 C 
ATOM     19  O   UNL     1      69.311  23.290  14.063  1.00  0.00    -0.253 OA
ATOM     20  C   UNL     1      68.759  21.209  15.087  1.00  0.00     0.034 C 
ENDBRANCH  17  18
ENDBRANCH  15  17
ENDBRANCH   6  15
TORSDOF 7
ENDMDL
MODEL 6
REMARK VINA RESULT:    -5.264      2.257      7.162
REMARK INTER + INTRA:          -7.691
REMARK INTER:                  -7.719
REMARK INTRA:                   0.028
REMARK UNBOUND:                -0.274
REMARK SMILES C=CCOC(=O)C1=CS[C@H]2[C@@H]([C@@H](C)OC(C)=O)C(=O)N12
REMARK SMILES IDX 9 1 8 2 7 3 20 4 10 5 11 6 18 7 19 8 5 9 6 10 4 11 3 12 2 13
REMARK SMILES IDX 1 14 12 15 13 16 14 17 15 18 17 19 16 20
REMARK H PARENT
REMARK Flexibility Score: inf
ROOT
ATOM      1  S   UNL     1      66.708  19.632  10.718  1.00  0.00    -0.105 SA
ATOM      2  C   UNL     1      67.723  19.192  12.082  1.00  0.00     0.004 C 
ATOM      3  C   UNL     1      68.238  20.206  12.784  1.00  0.00     0.137 C 
ATOM      4  N   UNL     1      67.957  21.459  12.298  1.00  0.00    -0.291 N 
ATOM      5  C   UNL     1      67.324  21.383  10.969  1.00  0.00     0.102 C 
ATOM      6  C   UNL     1      66.305  22.442  11.462  1.00  0.00     0.106 C 
ATOM      7  C   UNL     1      66.920  22.173  12.845  1.00  0.00     0.238 C 
ATOM      8  O   UNL     1      66.591  22.377  13.990  1.00  0.00    -0.274 OA
ENDROOT
BRANCH   3   9
ATOM      9  C   UNL     1      69.064  20.060  14.012  1.00  0.00     0.355 C 
ATOM     10  O   UNL     1      69.427  21.000  14.704  1.00  0.00    -0.244 OA
BRANCH   9  11
ATOM     11  O   UNL     1      69.356  18.754  14.236  1.00  0.00    -0.457 OA
BRANCH  11  12
ATOM     12  C   UNL     1      70.758  18.485  14.298  1.00  0.00     0.110 C 
BRANCH  12  13
ATOM     13  C   UNL     1      71.003  17.720  15.563  1.00  0.00    -0.054 C 
ATOM     14  C   UNL     1      70.224  17.776  16.651  1.00  0.00    -0.100 C 
ENDBRANCH  12  13
ENDBRANCH  11  12
ENDBRANCH   9  11
ENDBRANCH   3   9
BRANCH   6  15
ATOM     15  C   UNL     1      64.804  22.210  11.347  1.00  0.00     0.113 C 
ATOM     16  C   UNL     1      64.060  23.110  12.331  1.00  0.00    -0.027 C 
BRANCH  15  17
ATOM     17  O   UNL     1      64.421  22.601  10.008  1.00  0.00    -0.462 OA
BRANCH  17  18
ATOM     18  C   UNL     1      63.471  21.978   9.270  1.00  0.00     0.302 C 
ATOM     19  O   UNL     1      62.294  22.310   9.362  1.00  0.00    -0.253 OA
ATOM     20  C   UNL     1      63.913  20.895   8.332  1.00  0.00     0.034 C 
ENDBRANCH  17  18
ENDBRANCH  15  17
ENDBRANCH   6  15
TORSDOF 7
ENDMDL
MODEL 7
REMARK VINA RESULT:    -5.197      3.582      8.325
REMARK INTER + INTRA:          -7.598
REMARK INTER:                  -7.818
REMARK INTRA:                   0.220
REMARK UNBOUND:                -0.274
REMARK SMILES C=CCOC(=O)C1=CS[C@H]2[C@@H]([C@@H](C)OC(C)=O)C(=O)N12
REMARK SMILES IDX 9 1 8 2 7 3 20 4 10 5 11 6 18 7 19 8 5 9 6 10 4 11 3 12 2 13
REMARK SMILES IDX 1 14 12 15 13 16 14 17 15 18 17 19 16 20
REMARK H PARENT
REMARK Flexibility Score: inf
ROOT
ATOM      1  S   UNL     1      65.750  22.044   5.528  1.00  0.00    -0.105 SA
ATOM      2  C   UNL     1      64.847  21.788   7.012  1.00  0.00     0.004 C 
ATOM      3  C   UNL     1      64.021  22.775   7.375  1.00  0.00     0.137 C 
ATOM      4  N   UNL     1      64.044  23.886   6.571  1.00  0.00    -0.291 N 
ATOM      5  C   UNL     1      65.153  23.818   5.602  1.00  0.00     0.102 C 
ATOM      6  C   UNL     1      64.152  24.287   4.516  1.00  0.00     0.106 C 
ATOM      7  C   UNL     1      63.088  24.028   5.595  1.00  0.00     0.238 C 
ATOM      8  O   UNL     1      61.890  23.873   5.606  1.00  0.00    -0.274 OA
ENDROOT
BRANCH   3   9
ATOM      9  C   UNL     1      63.115  22.736   8.554  1.00  0.00     0.355 C 
ATOM     10  O   UNL     1      61.938  22.412   8.497  1.00  0.00    -0.244 OA
BRANCH   9  11
ATOM     11  O   UNL     1      63.776  23.118   9.675  1.00  0.00    -0.457 OA
BRANCH  11  12
ATOM     12  C   UNL     1      63.885  22.083  10.655  1.00  0.00     0.110 C 
BRANCH  12  13
ATOM     13  C   UNL     1      64.312  22.732  11.936  1.00  0.00    -0.054 C 
ATOM     14  C   UNL     1      65.546  22.661  12.452  1.00  0.00    -0.100 C 
ENDBRANCH  12  13
ENDBRANCH  11  12
ENDBRANCH   9  11
ENDBRANCH   3   9
BRANCH   6  15
ATOM     15  C   UNL     1      63.977  23.517   3.214  1.00  0.00     0.113 C 
ATOM     16  C   UNL     1      62.803  24.090   2.422  1.00  0.00    -0.027 C 
BRANCH  15  17
ATOM     17  O   UNL     1      65.181  23.724   2.439  1.00  0.00    -0.462 OA
BRANCH  17  18
ATOM     18  C   UNL     1      65.858  24.896   2.375  1.00  0.00     0.302 C 
ATOM     19  O   UNL     1      65.310  25.909   1.954  1.00  0.00    -0.253 OA
ATOM     20  C   UNL     1      67.279  24.910   2.854  1.00  0.00     0.034 C 
ENDBRANCH  17  18
ENDBRANCH  15  17
ENDBRANCH   6  15
TORSDOF 7
ENDMDL
MODEL 8
REMARK VINA RESULT:    -5.179      9.316     12.568
REMARK INTER + INTRA:          -7.572
REMARK INTER:                  -7.045
REMARK INTRA:                  -0.526
REMARK UNBOUND:                -0.274
REMARK SMILES C=CCOC(=O)C1=CS[C@H]2[C@@H]([C@@H](C)OC(C)=O)C(=O)N12
REMARK SMILES IDX 9 1 8 2 7 3 20 4 10 5 11 6 18 7 19 8 5 9 6 10 4 11 3 12 2 13
REMARK SMILES IDX 1 14 12 15 13 16 14 17 15 18 17 19 16 20
REMARK H PARENT
REMARK Flexibility Score: inf
ROOT
ATOM      1  S   UNL     1      57.376  23.052   3.720  1.00  0.00    -0.105 SA
ATOM      2  C   UNL     1      56.180  23.180   2.440  1.00  0.00     0.004 C 
ATOM      3  C   UNL     1      56.157  24.337   1.771  1.00  0.00     0.137 C 
ATOM      4  N   UNL     1      57.031  25.294   2.222  1.00  0.00    -0.291 N 
ATOM      5  C   UNL     1      57.645  24.892   3.501  1.00  0.00     0.102 C 
ATOM      6  C   UNL     1      59.005  25.358   2.924  1.00  0.00     0.106 C 
ATOM      7  C   UNL     1      58.241  25.450   1.593  1.00  0.00     0.238 C 
ATOM      8  O   UNL     1      58.545  25.506   0.425  1.00  0.00    -0.274 OA
ENDROOT
BRANCH   3   9
ATOM      9  C   UNL     1      55.276  24.632   0.609  1.00  0.00     0.355 C 
ATOM     10  O   UNL     1      55.139  23.884  -0.348  1.00  0.00    -0.244 OA
BRANCH   9  11
ATOM     11  O   UNL     1      54.671  25.836   0.765  1.00  0.00    -0.457 OA
BRANCH  11  12
ATOM     12  C   UNL     1      54.597  26.598  -0.442  1.00  0.00     0.110 C 
BRANCH  12  13
ATOM     13  C   UNL     1      55.776  27.523  -0.451  1.00  0.00    -0.054 C 
ATOM     14  C   UNL     1      56.042  28.429   0.500  1.00  0.00    -0.100 C 
ENDBRANCH  12  13
ENDBRANCH  11  12
ENDBRANCH   9  11
ENDBRANCH   3   9
BRANCH   6  15
ATOM     15  C   UNL     1      60.222  24.442   2.927  1.00  0.00     0.113 C 
ATOM     16  C   UNL     1      61.362  25.087   2.142  1.00  0.00    -0.027 C 
BRANCH  15  17
ATOM     17  O   UNL     1      60.646  24.314   4.305  1.00  0.00    -0.462 OA
BRANCH  17  18
ATOM     18  C   UNL     1      61.361  23.272   4.792  1.00  0.00     0.302 C 
ATOM     19  O   UNL     1      61.999  23.388   5.834  1.00  0.00    -0.253 OA
ATOM     20  C   UNL     1      61.325  21.982   4.030  1.00  0.00     0.034 C 
ENDBRANCH  17  18
ENDBRANCH  15  17
ENDBRANCH   6  15
TORSDOF 7
ENDMDL
MODEL 9
REMARK VINA RESULT:    -5.125      3.575      5.240
REMARK INTER + INTRA:          -7.496
REMARK INTER:                  -7.410
REMARK INTRA:                  -0.087
REMARK UNBOUND:                -0.274
REMARK SMILES C=CCOC(=O)C1=CS[C@H]2[C@@H]([C@@H](C)OC(C)=O)C(=O)N12
REMARK SMILES IDX 9 1 8 2 7 3 20 4 10 5 11 6 18 7 19 8 5 9 6 10 4 11 3 12 2 13
REMARK SMILES IDX 1 14 12 15 13 16 14 17 15 18 17 19 16 20
REMARK H PARENT
REMARK Flexibility Score: inf
ROOT
ATOM      1  S   UNL     1      65.229  21.102   6.618  1.00  0.00    -0.105 SA
ATOM      2  C   UNL     1      64.490  22.192   5.458  1.00  0.00     0.004 C 
ATOM      3  C   UNL     1      63.229  22.556   5.714  1.00  0.00     0.137 C 
ATOM      4  N   UNL     1      62.661  21.971   6.818  1.00  0.00    -0.291 N 
ATOM      5  C   UNL     1      63.517  20.893   7.346  1.00  0.00     0.102 C 
ATOM      6  C   UNL     1      63.260  21.467   8.763  1.00  0.00     0.106 C 
ATOM      7  C   UNL     1      62.646  22.656   8.008  1.00  0.00     0.238 C 
ATOM      8  O   UNL     1      62.365  23.800   8.281  1.00  0.00    -0.274 OA
ENDROOT
BRANCH   3   9
ATOM      9  C   UNL     1      62.440  23.523   4.904  1.00  0.00     0.355 C 
ATOM     10  O   UNL     1      62.938  24.429   4.252  1.00  0.00    -0.244 OA
BRANCH   9  11
ATOM     11  O   UNL     1      61.114  23.258   5.007  1.00  0.00    -0.457 OA
BRANCH  11  12
ATOM     12  C   UNL     1      60.461  23.112   3.744  1.00  0.00     0.110 C 
BRANCH  12  13
ATOM     13  C   UNL     1      59.458  24.221   3.636  1.00  0.00    -0.054 C 
ATOM     14  C   UNL     1      58.132  24.060   3.726  1.00  0.00    -0.100 C 
ENDBRANCH  12  13
ENDBRANCH  11  12
ENDBRANCH   9  11
ENDBRANCH   3   9
BRANCH   6  15
ATOM     15  C   UNL     1      64.412  21.801   9.702  1.00  0.00     0.113 C 
ATOM     16  C   UNL     1      63.874  22.446  10.978  1.00  0.00    -0.027 C 
BRANCH  15  17
ATOM     17  O   UNL     1      65.034  20.545  10.065  1.00  0.00    -0.462 OA
BRANCH  17  18
ATOM     18  C   UNL     1      66.351  20.396  10.343  1.00  0.00     0.302 C 
ATOM     19  O   UNL     1      67.115  19.925   9.506  1.00  0.00    -0.253 OA
ATOM     20  C   UNL     1      66.837  20.843  11.688  1.00  0.00     0.034 C 
ENDBRANCH  17  18
ENDBRANCH  15  17
ENDBRANCH   6  15
TORSDOF 7
ENDMDL
MODEL 10
REMARK VINA RESULT:    -4.981      3.479      5.573
REMARK INTER + INTRA:          -7.292
REMARK INTER:                  -7.138
REMARK INTRA:                  -0.154
REMARK UNBOUND:                -0.274
REMARK SMILES C=CCOC(=O)C1=CS[C@H]2[C@@H]([C@@H](C)OC(C)=O)C(=O)N12
REMARK SMILES IDX 9 1 8 2 7 3 20 4 10 5 11 6 18 7 19 8 5 9 6 10 4 11 3 12 2 13
REMARK SMILES IDX 1 14 12 15 13 16 14 17 15 18 17 19 16 20
REMARK H PARENT
REMARK Flexibility Score: inf
ROOT
ATOM      1  S   UNL     1      69.622  20.097  14.743  1.00  0.00    -0.105 SA
ATOM      2  C   UNL     1      68.437  20.893  13.721  1.00  0.00     0.004 C 
ATOM      3  C   UNL     1      68.083  20.238  12.611  1.00  0.00     0.137 C 
ATOM      4  N   UNL     1      68.747  19.058  12.388  1.00  0.00    -0.291 N 
ATOM      5  C   UNL     1      69.872  18.896  13.328  1.00  0.00     0.102 C 
ATOM      6  C   UNL     1      69.408  17.432  13.534  1.00  0.00     0.106 C 
ATOM      7  C   UNL     1      68.158  17.875  12.758  1.00  0.00     0.238 C 
ATOM      8  O   UNL     1      67.036  17.448  12.611  1.00  0.00    -0.274 OA
ENDROOT
BRANCH   3   9
ATOM      9  C   UNL     1      67.048  20.696  11.645  1.00  0.00     0.355 C 
ATOM     10  O   UNL     1      67.208  20.709  10.433  1.00  0.00    -0.244 OA
BRANCH   9  11
ATOM     11  O   UNL     1      65.931  21.099  12.300  1.00  0.00    -0.457 OA
BRANCH  11  12
ATOM     12  C   UNL     1      65.713  22.510  12.244  1.00  0.00     0.110 C 
BRANCH  12  13
ATOM     13  C   UNL     1      64.318  22.720  11.739  1.00  0.00    -0.054 C 
ATOM     14  C   UNL     1      63.833  22.207  10.601  1.00  0.00    -0.100 C 
ENDBRANCH  12  13
ENDBRANCH  11  12
ENDBRANCH   9  11
ENDBRANCH   3   9
BRANCH   6  15
ATOM     15  C   UNL     1      69.159  16.869  14.927  1.00  0.00     0.113 C 
ATOM     16  C   UNL     1      68.690  15.419  14.828  1.00  0.00    -0.027 C 
BRANCH  15  17
ATOM     17  O   UNL     1      70.432  16.880  15.617  1.00  0.00    -0.462 OA
BRANCH  17  18
ATOM     18  C   UNL     1      70.605  17.290  16.896  1.00  0.00     0.302 C 
ATOM     19  O   UNL     1      69.817  16.949  17.772  1.00  0.00    -0.253 OA
ATOM     20  C   UNL     1      71.796  18.148  17.200  1.00  0.00     0.034 C 
ENDBRANCH  17  18
ENDBRANCH  15  17
ENDBRANCH   6  15
TORSDOF 7
ENDMDL
MODEL 11
REMARK VINA RESULT:    -4.956      4.031      5.993
REMARK INTER + INTRA:          -7.257
REMARK INTER:                  -7.043
REMARK INTRA:                  -0.214
REMARK UNBOUND:                -0.274
REMARK SMILES C=CCOC(=O)C1=CS[C@H]2[C@@H]([C@@H](C)OC(C)=O)C(=O)N12
REMARK SMILES IDX 9 1 8 2 7 3 20 4 10 5 11 6 18 7 19 8 5 9 6 10 4 11 3 12 2 13
REMARK SMILES IDX 1 14 12 15 13 16 14 17 15 18 17 19 16 20
REMARK H PARENT
REMARK Flexibility Score: inf
ROOT
ATOM      1  S   UNL     1      69.548  20.079  15.796  1.00  0.00    -0.105 SA
ATOM      2  C   UNL     1      68.547  21.200  14.886  1.00  0.00     0.004 C 
ATOM      3  C   UNL     1      68.454  20.971  13.573  1.00  0.00     0.137 C 
ATOM      4  N   UNL     1      69.209  19.926  13.103  1.00  0.00    -0.291 N 
ATOM      5  C   UNL     1      70.133  19.431  14.140  1.00  0.00     0.102 C 
ATOM      6  C   UNL     1      69.715  17.994  13.739  1.00  0.00     0.106 C 
ATOM      7  C   UNL     1      68.621  18.699  12.922  1.00  0.00     0.238 C 
ATOM      8  O   UNL     1      67.574  18.370  12.415  1.00  0.00    -0.274 OA
ENDROOT
BRANCH   3   9
ATOM      9  C   UNL     1      67.608  21.752  12.630  1.00  0.00     0.355 C 
ATOM     10  O   UNL     1      67.771  21.762  11.419  1.00  0.00    -0.244 OA
BRANCH   9  11
ATOM     11  O   UNL     1      66.657  22.444  13.306  1.00  0.00    -0.457 OA
BRANCH  11  12
ATOM     12  C   UNL     1      66.437  23.760  12.796  1.00  0.00     0.110 C 
BRANCH  12  13
ATOM     13  C   UNL     1      67.458  24.654  13.432  1.00  0.00    -0.054 C 
ATOM     14  C   UNL     1      67.434  25.993  13.385  1.00  0.00    -0.100 C 
ENDBRANCH  12  13
ENDBRANCH  11  12
ENDBRANCH   9  11
ENDBRANCH   3   9
BRANCH   6  15
ATOM     15  C   UNL     1      69.226  16.993  14.778  1.00  0.00     0.113 C 
ATOM     16  C   UNL     1      68.563  15.804  14.085  1.00  0.00    -0.027 C 
BRANCH  15  17
ATOM     17  O   UNL     1      70.397  16.507  15.475  1.00  0.00    -0.462 OA
BRANCH  17  18
ATOM     18  C   UNL     1      70.681  16.774  16.773  1.00  0.00     0.302 C 
ATOM     19  O   UNL     1      71.670  17.438  17.069  1.00  0.00    -0.253 OA
ATOM     20  C   UNL     1      69.741  16.253  17.816  1.00  0.00     0.034 C 
ENDBRANCH  17  18
ENDBRANCH  15  17
ENDBRANCH   6  15
TORSDOF 7
ENDMDL
MODEL 12
REMARK VINA RESULT:    -4.948     14.672     15.995
REMARK INTER + INTRA:          -7.246
REMARK INTER:                  -6.970
REMARK INTRA:                  -0.276
REMARK UNBOUND:                -0.274
REMARK SMILES C=CCOC(=O)C1=CS[C@H]2[C@@H]([C@@H](C)OC(C)=O)C(=O)N12
REMARK SMILES IDX 9 1 8 2 7 3 20 4 10 5 11 6 18 7 19 8 5 9 6 10 4 11 3 12 2 13
REMARK SMILES IDX 1 14 12 15 13 16 14 17 15 18 17 19 16 20
REMARK H PARENT
REMARK Flexibility Score: inf
ROOT
ATOM      1  S   UNL     1      58.716  25.215  -1.448  1.00  0.00    -0.105 SA
ATOM      2  C   UNL     1      60.421  25.571  -1.670  1.00  0.00     0.004 C 
ATOM      3  C   UNL     1      60.711  26.791  -2.134  1.00  0.00     0.137 C 
ATOM      4  N   UNL     1      59.627  27.577  -2.437  1.00  0.00    -0.291 N 
ATOM      5  C   UNL     1      58.376  26.799  -2.387  1.00  0.00     0.102 C 
ATOM      6  C   UNL     1      57.746  27.979  -1.606  1.00  0.00     0.106 C 
ATOM      7  C   UNL     1      59.189  28.500  -1.521  1.00  0.00     0.238 C 
ATOM      8  O   UNL     1      59.777  29.308  -0.840  1.00  0.00    -0.274 OA
ENDROOT
BRANCH   3   9
ATOM      9  C   UNL     1      62.086  27.324  -2.329  1.00  0.00     0.355 C 
ATOM     10  O   UNL     1      63.024  27.072  -1.588  1.00  0.00    -0.244 OA
BRANCH   9  11
ATOM     11  O   UNL     1      62.135  28.124  -3.423  1.00  0.00    -0.457 OA
BRANCH  11  12
ATOM     12  C   UNL     1      63.445  28.247  -3.983  1.00  0.00     0.110 C 
BRANCH  12  13
ATOM     13  C   UNL     1      63.802  29.701  -3.951  1.00  0.00    -0.054 C 
ATOM     14  C   UNL     1      62.918  30.705  -4.020  1.00  0.00    -0.100 C 
ENDBRANCH  12  13
ENDBRANCH  11  12
ENDBRANCH   9  11
ENDBRANCH   3   9
BRANCH   6  15
ATOM     15  C   UNL     1      57.040  27.760  -0.274  1.00  0.00     0.113 C 
ATOM     16  C   UNL     1      56.583  29.099   0.301  1.00  0.00    -0.027 C 
BRANCH  15  17
ATOM     17  O   UNL     1      55.861  26.967  -0.550  1.00  0.00    -0.462 OA
BRANCH  17  18
ATOM     18  C   UNL     1      55.254  26.159   0.352  1.00  0.00     0.302 C 
ATOM     19  O   UNL     1      54.030  26.098   0.408  1.00  0.00    -0.253 OA
ATOM     20  C   UNL     1      56.125  25.337   1.253  1.00  0.00     0.034 C 
ENDBRANCH  17  18
ENDBRANCH  15  17
ENDBRANCH   6  15
TORSDOF 7
ENDMDL
MODEL 13
REMARK VINA RESULT:    -4.943      3.614      8.244
REMARK INTER + INTRA:          -7.239
REMARK INTER:                  -7.081
REMARK INTRA:                  -0.158
REMARK UNBOUND:                -0.274
REMARK SMILES C=CCOC(=O)C1=CS[C@H]2[C@@H]([C@@H](C)OC(C)=O)C(=O)N12
REMARK SMILES IDX 9 1 8 2 7 3 20 4 10 5 11 6 18 7 19 8 5 9 6 10 4 11 3 12 2 13
REMARK SMILES IDX 1 14 12 15 13 16 14 17 15 18 17 19 16 20
REMARK H PARENT
REMARK Flexibility Score: inf
ROOT
ATOM      1  S   UNL     1      65.866  22.563   5.156  1.00  0.00    -0.105 SA
ATOM      2  C   UNL     1      65.654  21.395   6.450  1.00  0.00     0.004 C 
ATOM      3  C   UNL     1      64.767  21.720   7.395  1.00  0.00     0.137 C 
ATOM      4  N   UNL     1      64.190  22.957   7.259  1.00  0.00    -0.291 N 
ATOM      5  C   UNL     1      64.858  23.742   6.205  1.00  0.00     0.102 C 
ATOM      6  C   UNL     1      63.450  24.139   5.694  1.00  0.00     0.106 C 
ATOM      7  C   UNL     1      62.954  23.061   6.671  1.00  0.00     0.238 C 
ATOM      8  O   UNL     1      61.932  22.432   6.816  1.00  0.00    -0.274 OA
ENDROOT
BRANCH   3   9
ATOM      9  C   UNL     1      64.383  20.849   8.539  1.00  0.00     0.355 C 
ATOM     10  O   UNL     1      64.143  19.655   8.433  1.00  0.00    -0.244 OA
BRANCH   9  11
ATOM     11  O   UNL     1      64.330  21.568   9.687  1.00  0.00    -0.457 OA
BRANCH  11  12
ATOM     12  C   UNL     1      65.518  21.473  10.476  1.00  0.00     0.110 C 
BRANCH  12  13
ATOM     13  C   UNL     1      65.221  22.110  11.799  1.00  0.00    -0.054 C 
ATOM     14  C   UNL     1      64.178  22.915  12.040  1.00  0.00    -0.100 C 
ENDBRANCH  12  13
ENDBRANCH  11  12
ENDBRANCH   9  11
ENDBRANCH   3   9
BRANCH   6  15
ATOM     15  C   UNL     1      63.054  23.946   4.236  1.00  0.00     0.113 C 
ATOM     16  C   UNL     1      61.537  24.039   4.091  1.00  0.00    -0.027 C 
BRANCH  15  17
ATOM     17  O   UNL     1      63.641  25.041   3.493  1.00  0.00    -0.462 OA
BRANCH  17  18
ATOM     18  C   UNL     1      64.451  24.890   2.418  1.00  0.00     0.302 C 
ATOM     19  O   UNL     1      64.199  24.046   1.564  1.00  0.00    -0.253 OA
ATOM     20  C   UNL     1      65.638  25.798   2.303  1.00  0.00     0.034 C 
ENDBRANCH  17  18
ENDBRANCH  15  17
ENDBRANCH   6  15
TORSDOF 7
ENDMDL
MODEL 14
REMARK VINA RESULT:    -4.923      4.813      8.872
REMARK INTER + INTRA:          -7.211
REMARK INTER:                  -7.001
REMARK INTRA:                  -0.210
REMARK UNBOUND:                -0.274
REMARK SMILES C=CCOC(=O)C1=CS[C@H]2[C@@H]([C@@H](C)OC(C)=O)C(=O)N12
REMARK SMILES IDX 9 1 8 2 7 3 20 4 10 5 11 6 18 7 19 8 5 9 6 10 4 11 3 12 2 13
REMARK SMILES IDX 1 14 12 15 13 16 14 17 15 18 17 19 16 20
REMARK H PARENT
REMARK Flexibility Score: inf
ROOT
ATOM      1  S   UNL     1      66.070  25.678   4.954  1.00  0.00    -0.105 SA
ATOM      2  C   UNL     1      65.025  24.865   6.107  1.00  0.00     0.004 C 
ATOM      3  C   UNL     1      64.135  24.010   5.593  1.00  0.00     0.137 C 
ATOM      4  N   UNL     1      64.116  23.936   4.223  1.00  0.00    -0.291 N 
ATOM      5  C   UNL     1      64.944  24.997   3.622  1.00  0.00     0.102 C 
ATOM      6  C   UNL     1      65.523  23.920   2.670  1.00  0.00     0.106 C 
ATOM      7  C   UNL     1      64.803  22.927   3.595  1.00  0.00     0.238 C 
ATOM      8  O   UNL     1      64.875  21.740   3.811  1.00  0.00    -0.274 OA
ENDROOT
BRANCH   3   9
ATOM      9  C   UNL     1      63.204  23.167   6.391  1.00  0.00     0.355 C 
ATOM     10  O   UNL     1      62.013  23.047   6.143  1.00  0.00    -0.244 OA
BRANCH   9  11
ATOM     11  O   UNL     1      63.862  22.575   7.418  1.00  0.00    -0.457 OA
BRANCH  11  12
ATOM     12  C   UNL     1      63.146  22.618   8.655  1.00  0.00     0.110 C 
BRANCH  12  13
ATOM     13  C   UNL     1      64.022  21.984   9.692  1.00  0.00    -0.054 C 
ATOM     14  C   UNL     1      63.998  22.285  10.997  1.00  0.00    -0.100 C 
ENDBRANCH  12  13
ENDBRANCH  11  12
ENDBRANCH   9  11
ENDBRANCH   3   9
BRANCH   6  15
ATOM     15  C   UNL     1      67.026  23.719   2.522  1.00  0.00     0.113 C 
ATOM     16  C   UNL     1      67.306  22.516   1.625  1.00  0.00    -0.027 C 
BRANCH  15  17
ATOM     17  O   UNL     1      67.544  24.898   1.862  1.00  0.00    -0.462 OA
BRANCH  17  18
ATOM     18  C   UNL     1      68.860  25.150   1.666  1.00  0.00     0.302 C 
ATOM     19  O   UNL     1      69.286  25.400   0.543  1.00  0.00    -0.253 OA
ATOM     20  C   UNL     1      69.761  25.135   2.864  1.00  0.00     0.034 C 
ENDBRANCH  17  18
ENDBRANCH  15  17
ENDBRANCH   6  15
TORSDOF 7
ENDMDL
MODEL 15
REMARK VINA RESULT:    -4.907      2.238      3.220
REMARK INTER + INTRA:          -7.188
REMARK INTER:                  -6.744
REMARK INTRA:                  -0.445
REMARK UNBOUND:                -0.274
REMARK SMILES C=CCOC(=O)C1=CS[C@H]2[C@@H]([C@@H](C)OC(C)=O)C(=O)N12
REMARK SMILES IDX 9 1 8 2 7 3 20 4 10 5 11 6 18 7 19 8 5 9 6 10 4 11 3 12 2 13
REMARK SMILES IDX 1 14 12 15 13 16 14 17 15 18 17 19 16 20
REMARK H PARENT
REMARK Flexibility Score: inf
ROOT
ATOM      1  S   UNL     1      67.335  21.977  13.566  1.00  0.00    -0.105 SA
ATOM      2  C   UNL     1      65.864  22.573  12.815  1.00  0.00     0.004 C 
ATOM      3  C   UNL     1      65.697  22.265  11.524  1.00  0.00     0.137 C 
ATOM      4  N   UNL     1      66.735  21.579  10.945  1.00  0.00    -0.291 N 
ATOM      5  C   UNL     1      67.907  21.535  11.839  1.00  0.00     0.102 C 
ATOM      6  C   UNL     1      68.040  20.032  11.487  1.00  0.00     0.106 C 
ATOM      7  C   UNL     1      66.660  20.213  10.836  1.00  0.00     0.238 C 
ATOM      8  O   UNL     1      65.772  19.477  10.476  1.00  0.00    -0.274 OA
ENDROOT
BRANCH   3   9
ATOM      9  C   UNL     1      64.496  22.607  10.716  1.00  0.00     0.355 C 
ATOM     10  O   UNL     1      63.351  22.539  11.137  1.00  0.00    -0.244 OA
BRANCH   9  11
ATOM     11  O   UNL     1      64.858  22.987   9.465  1.00  0.00    -0.457 OA
BRANCH  11  12
ATOM     12  C   UNL     1      63.879  22.682   8.470  1.00  0.00     0.110 C 
BRANCH  12  13
ATOM     13  C   UNL     1      64.192  21.312   7.950  1.00  0.00    -0.054 C 
ATOM     14  C   UNL     1      65.300  20.990   7.268  1.00  0.00    -0.100 C 
ENDBRANCH  12  13
ENDBRANCH  11  12
ENDBRANCH   9  11
ENDBRANCH   3   9
BRANCH   6  15
ATOM     15  C   UNL     1      68.127  18.968  12.574  1.00  0.00     0.113 C 
ATOM     16  C   UNL     1      68.038  17.577  11.951  1.00  0.00    -0.027 C 
BRANCH  15  17
ATOM     17  O   UNL     1      69.431  19.101  13.187  1.00  0.00    -0.462 OA
BRANCH  17  18
ATOM     18  C   UNL     1      69.648  19.142  14.523  1.00  0.00     0.302 C 
ATOM     19  O   UNL     1      69.993  20.188  15.066  1.00  0.00    -0.253 OA
ATOM     20  C   UNL     1      69.432  17.883  15.307  1.00  0.00     0.034 C 
ENDBRANCH  17  18
ENDBRANCH  15  17
ENDBRANCH   6  15
TORSDOF 7
ENDMDL
MODEL 16
REMARK VINA RESULT:    -4.879     14.590     16.190
REMARK INTER + INTRA:          -7.149
REMARK INTER:                  -6.644
REMARK INTRA:                  -0.505
REMARK UNBOUND:                -0.274
REMARK SMILES C=CCOC(=O)C1=CS[C@H]2[C@@H]([C@@H](C)OC(C)=O)C(=O)N12
REMARK SMILES IDX 9 1 8 2 7 3 20 4 10 5 11 6 18 7 19 8 5 9 6 10 4 11 3 12 2 13
REMARK SMILES IDX 1 14 12 15 13 16 14 17 15 18 17 19 16 20
REMARK H PARENT
REMARK Flexibility Score: inf
ROOT
ATOM      1  S   UNL     1      61.762  26.609  -1.493  1.00  0.00    -0.105 SA
ATOM      2  C   UNL     1      60.340  25.607  -1.252  1.00  0.00     0.004 C 
ATOM      3  C   UNL     1      59.186  26.258  -1.073  1.00  0.00     0.137 C 
ATOM      4  N   UNL     1      59.283  27.626  -1.036  1.00  0.00    -0.291 N 
ATOM      5  C   UNL     1      60.692  28.057  -0.981  1.00  0.00     0.102 C 
ATOM      6  C   UNL     1      60.346  29.115  -2.060  1.00  0.00     0.106 C 
ATOM      7  C   UNL     1      59.018  28.349  -2.172  1.00  0.00     0.238 C 
ATOM      8  O   UNL     1      58.126  28.282  -2.986  1.00  0.00    -0.274 OA
ENDROOT
BRANCH   3   9
ATOM      9  C   UNL     1      57.856  25.608  -0.922  1.00  0.00     0.355 C 
ATOM     10  O   UNL     1      57.355  24.880  -1.765  1.00  0.00    -0.244 OA
BRANCH   9  11
ATOM     11  O   UNL     1      57.293  25.949   0.264  1.00  0.00    -0.457 OA
BRANCH  11  12
ATOM     12  C   UNL     1      56.032  26.609   0.129  1.00  0.00     0.110 C 
BRANCH  12  13
ATOM     13  C   UNL     1      56.141  27.919   0.848  1.00  0.00    -0.054 C 
ATOM     14  C   UNL     1      56.211  29.114   0.247  1.00  0.00    -0.100 C 
ENDBRANCH  12  13
ENDBRANCH  11  12
ENDBRANCH   9  11
ENDBRANCH   3   9
BRANCH   6  15
ATOM     15  C   UNL     1      61.156  29.229  -3.344  1.00  0.00     0.113 C 
ATOM     16  C   UNL     1      60.534  30.281  -4.261  1.00  0.00    -0.027 C 
BRANCH  15  17
ATOM     17  O   UNL     1      62.475  29.690  -2.968  1.00  0.00    -0.462 OA
BRANCH  17  18
ATOM     18  C   UNL     1      63.556  29.670  -3.785  1.00  0.00     0.302 C 
ATOM     19  O   UNL     1      64.126  30.712  -4.089  1.00  0.00    -0.253 OA
ATOM     20  C   UNL     1      64.034  28.338  -4.279  1.00  0.00     0.034 C 
ENDBRANCH  17  18
ENDBRANCH  15  17
ENDBRANCH   6  15
TORSDOF 7
ENDMDL
MODEL 17
REMARK VINA RESULT:    -4.845      9.191     13.237
REMARK INTER + INTRA:          -7.101
REMARK INTER:                  -7.063
REMARK INTRA:                  -0.039
REMARK UNBOUND:                -0.274
REMARK SMILES C=CCOC(=O)C1=CS[C@H]2[C@@H]([C@@H](C)OC(C)=O)C(=O)N12
REMARK SMILES IDX 9 1 8 2 7 3 20 4 10 5 11 6 18 7 19 8 5 9 6 10 4 11 3 12 2 13
REMARK SMILES IDX 1 14 12 15 13 16 14 17 15 18 17 19 16 20
REMARK H PARENT
REMARK Flexibility Score: inf
ROOT
ATOM      1  S   UNL     1      58.977  25.687   0.916  1.00  0.00    -0.105 SA
ATOM      2  C   UNL     1      60.424  25.058   1.686  1.00  0.00     0.004 C 
ATOM      3  C   UNL     1      60.287  24.649   2.951  1.00  0.00     0.137 C 
ATOM      4  N   UNL     1      59.043  24.840   3.498  1.00  0.00    -0.291 N 
ATOM      5  C   UNL     1      58.197  25.666   2.618  1.00  0.00     0.102 C 
ATOM      6  C   UNL     1      57.051  24.656   2.874  1.00  0.00     0.106 C 
ATOM      7  C   UNL     1      58.151  23.797   3.517  1.00  0.00     0.238 C 
ATOM      8  O   UNL     1      58.272  22.632   3.818  1.00  0.00    -0.274 OA
ENDROOT
BRANCH   3   9
ATOM      9  C   UNL     1      61.363  24.021   3.765  1.00  0.00     0.355 C 
ATOM     10  O   UNL     1      61.326  23.926   4.982  1.00  0.00    -0.244 OA
BRANCH   9  11
ATOM     11  O   UNL     1      62.372  23.590   2.967  1.00  0.00    -0.457 OA
BRANCH  11  12
ATOM     12  C   UNL     1      63.672  23.837   3.508  1.00  0.00     0.110 C 
BRANCH  12  13
ATOM     13  C   UNL     1      64.232  25.023   2.784  1.00  0.00    -0.054 C 
ATOM     14  C   UNL     1      65.270  25.755   3.208  1.00  0.00    -0.100 C 
ENDBRANCH  12  13
ENDBRANCH  11  12
ENDBRANCH   9  11
ENDBRANCH   3   9
BRANCH   6  15
ATOM     15  C   UNL     1      56.293  24.010   1.721  1.00  0.00     0.113 C 
ATOM     16  C   UNL     1      55.541  22.777   2.218  1.00  0.00    -0.027 C 
BRANCH  15  17
ATOM     17  O   UNL     1      55.316  24.976   1.268  1.00  0.00    -0.462 OA
BRANCH  17  18
ATOM     18  C   UNL     1      54.371  24.727   0.330  1.00  0.00     0.302 C 
ATOM     19  O   UNL     1      53.192  24.988   0.550  1.00  0.00    -0.253 OA
ATOM     20  C   UNL     1      54.819  24.148  -0.978  1.00  0.00     0.034 C 
ENDBRANCH  17  18
ENDBRANCH  15  17
ENDBRANCH   6  15
TORSDOF 7
ENDMDL
MODEL 18
REMARK VINA RESULT:    -4.845     13.326     15.216
REMARK INTER + INTRA:          -7.101
REMARK INTER:                  -6.892
REMARK INTRA:                  -0.209
REMARK UNBOUND:                -0.274
REMARK SMILES C=CCOC(=O)C1=CS[C@H]2[C@@H]([C@@H](C)OC(C)=O)C(=O)N12
REMARK SMILES IDX 9 1 8 2 7 3 20 4 10 5 11 6 18 7 19 8 5 9 6 10 4 11 3 12 2 13
REMARK SMILES IDX 1 14 12 15 13 16 14 17 15 18 17 19 16 20
REMARK H PARENT
REMARK Flexibility Score: inf
ROOT
ATOM      1  S   UNL     1      61.036  25.227   0.068  1.00  0.00    -0.105 SA
ATOM      2  C   UNL     1      62.363  25.733  -0.965  1.00  0.00     0.004 C 
ATOM      3  C   UNL     1      62.042  26.041  -2.226  1.00  0.00     0.137 C 
ATOM      4  N   UNL     1      60.723  25.854  -2.559  1.00  0.00    -0.291 N 
ATOM      5  C   UNL     1      60.003  25.137  -1.491  1.00  0.00     0.102 C 
ATOM      6  C   UNL     1      58.857  26.167  -1.658  1.00  0.00     0.106 C 
ATOM      7  C   UNL     1      59.866  26.926  -2.534  1.00  0.00     0.238 C 
ATOM      8  O   UNL     1      59.970  28.056  -2.951  1.00  0.00    -0.274 OA
ENDROOT
BRANCH   3   9
ATOM      9  C   UNL     1      62.994  26.556  -3.246  1.00  0.00     0.355 C 
ATOM     10  O   UNL     1      63.300  25.947  -4.260  1.00  0.00    -0.244 OA
BRANCH   9  11
ATOM     11  O   UNL     1      63.469  27.773  -2.881  1.00  0.00    -0.457 OA
BRANCH  11  12
ATOM     12  C   UNL     1      64.174  28.448  -3.925  1.00  0.00     0.110 C 
BRANCH  12  13
ATOM     13  C   UNL     1      63.338  29.622  -4.334  1.00  0.00    -0.054 C 
ATOM     14  C   UNL     1      63.129  30.709  -3.580  1.00  0.00    -0.100 C 
ENDBRANCH  12  13
ENDBRANCH  11  12
ENDBRANCH   9  11
ENDBRANCH   3   9
BRANCH   6  15
ATOM     15  C   UNL     1      58.304  26.936  -0.465  1.00  0.00     0.113 C 
ATOM     16  C   UNL     1      57.429  28.090  -0.948  1.00  0.00    -0.027 C 
BRANCH  15  17
ATOM     17  O   UNL     1      57.464  26.017   0.273  1.00  0.00    -0.462 OA
BRANCH  17  18
ATOM     18  C   UNL     1      57.194  26.120   1.597  1.00  0.00     0.302 C 
ATOM     19  O   UNL     1      56.167  26.670   1.982  1.00  0.00    -0.253 OA
ATOM     20  C   UNL     1      58.177  25.525   2.559  1.00  0.00     0.034 C 
ENDBRANCH  17  18
ENDBRANCH  15  17
ENDBRANCH   6  15
TORSDOF 7
ENDMDL
MODEL 19
REMARK VINA RESULT:    -4.841      2.731      7.187
REMARK INTER + INTRA:          -7.096
REMARK INTER:                  -6.822
REMARK INTRA:                  -0.274
REMARK UNBOUND:                -0.274
REMARK SMILES C=CCOC(=O)C1=CS[C@H]2[C@@H]([C@@H](C)OC(C)=O)C(=O)N12
REMARK SMILES IDX 9 1 8 2 7 3 20 4 10 5 11 6 18 7 19 8 5 9 6 10 4 11 3 12 2 13
REMARK SMILES IDX 1 14 12 15 13 16 14 17 15 18 17 19 16 20
REMARK H PARENT
REMARK Flexibility Score: inf
ROOT
ATOM      1  S   UNL     1      66.589  18.736  11.281  1.00  0.00    -0.105 SA
ATOM      2  C   UNL     1      67.376  17.688  12.450  1.00  0.00     0.004 C 
ATOM      3  C   UNL     1      68.449  18.194  13.065  1.00  0.00     0.137 C 
ATOM      4  N   UNL     1      68.830  19.444  12.647  1.00  0.00    -0.291 N 
ATOM      5  C   UNL     1      68.084  19.852  11.443  1.00  0.00     0.102 C 
ATOM      6  C   UNL     1      67.883  21.235  12.111  1.00  0.00     0.106 C 
ATOM      7  C   UNL     1      68.434  20.543  13.368  1.00  0.00     0.238 C 
ATOM      8  O   UNL     1      68.427  20.775  14.554  1.00  0.00    -0.274 OA
ENDROOT
BRANCH   3   9
ATOM      9  C   UNL     1      69.221  17.507  14.136  1.00  0.00     0.355 C 
ATOM     10  O   UNL     1      68.720  16.755  14.959  1.00  0.00    -0.244 OA
BRANCH   9  11
ATOM     11  O   UNL     1      70.533  17.845  14.068  1.00  0.00    -0.457 OA
BRANCH  11  12
ATOM     12  C   UNL     1      71.066  18.316  15.308  1.00  0.00     0.110 C 
BRANCH  12  13
ATOM     13  C   UNL     1      72.253  19.169  14.980  1.00  0.00    -0.054 C 
ATOM     14  C   UNL     1      72.951  19.099  13.839  1.00  0.00    -0.100 C 
ENDBRANCH  12  13
ENDBRANCH  11  12
ENDBRANCH   9  11
ENDBRANCH   3   9
BRANCH   6  15
ATOM     15  C   UNL     1      66.497  21.854  12.248  1.00  0.00     0.113 C 
ATOM     16  C   UNL     1      66.572  23.116  13.104  1.00  0.00    -0.027 C 
BRANCH  15  17
ATOM     17  O   UNL     1      66.078  22.241  10.918  1.00  0.00    -0.462 OA
BRANCH  17  18
ATOM     18  C   UNL     1      64.794  22.231  10.487  1.00  0.00     0.302 C 
ATOM     19  O   UNL     1      63.984  23.041  10.925  1.00  0.00    -0.253 OA
ATOM     20  C   UNL     1      64.412  21.218   9.450  1.00  0.00     0.034 C 
ENDBRANCH  17  18
ENDBRANCH  15  17
ENDBRANCH   6  15
TORSDOF 7
ENDMDL
MODEL 20
REMARK VINA RESULT:    -4.756     14.207     16.413
REMARK INTER + INTRA:          -6.975
REMARK INTER:                  -6.675
REMARK INTRA:                  -0.300
REMARK UNBOUND:                -0.274
REMARK SMILES C=CCOC(=O)C1=CS[C@H]2[C@@H]([C@@H](C)OC(C)=O)C(=O)N12
REMARK SMILES IDX 9 1 8 2 7 3 20 4 10 5 11 6 18 7 19 8 5 9 6 10 4 11 3 12 2 13
REMARK SMILES IDX 1 14 12 15 13 16 14 17 15 18 17 19 16 20
REMARK H PARENT
REMARK Flexibility Score: inf
ROOT
ATOM      1  S   UNL     1      56.857  28.795   0.029  1.00  0.00    -0.105 SA
ATOM      2  C   UNL     1      55.716  27.634   0.686  1.00  0.00     0.004 C 
ATOM      3  C   UNL     1      55.278  26.697  -0.161  1.00  0.00     0.137 C 
ATOM      4  N   UNL     1      55.732  26.812  -1.451  1.00  0.00    -0.291 N 
ATOM      5  C   UNL     1      56.434  28.092  -1.654  1.00  0.00     0.102 C 
ATOM      6  C   UNL     1      57.535  27.299  -2.402  1.00  0.00     0.106 C 
ATOM      7  C   UNL     1      56.808  26.061  -1.853  1.00  0.00     0.238 C 
ATOM      8  O   UNL     1      57.086  24.895  -1.698  1.00  0.00    -0.274 OA
ENDROOT
BRANCH   3   9
ATOM      9  C   UNL     1      54.366  25.579   0.204  1.00  0.00     0.355 C 
ATOM     10  O   UNL     1      53.271  25.401  -0.309  1.00  0.00    -0.244 OA
BRANCH   9  11
ATOM     11  O   UNL     1      54.918  24.813   1.177  1.00  0.00    -0.457 OA
BRANCH  11  12
ATOM     12  C   UNL     1      55.040  23.435   0.819  1.00  0.00     0.110 C 
BRANCH  12  13
ATOM     13  C   UNL     1      55.674  22.733   1.982  1.00  0.00    -0.054 C 
ATOM     14  C   UNL     1      56.595  23.274   2.789  1.00  0.00    -0.100 C 
ENDBRANCH  12  13
ENDBRANCH  11  12
ENDBRANCH   9  11
ENDBRANCH   3   9
BRANCH   6  15
ATOM     15  C   UNL     1      59.003  27.430  -2.020  1.00  0.00     0.113 C 
ATOM     16  C   UNL     1      59.837  26.411  -2.793  1.00  0.00    -0.027 C 
BRANCH  15  17
ATOM     17  O   UNL     1      59.426  28.753  -2.427  1.00  0.00    -0.462 OA
BRANCH  17  18
ATOM     18  C   UNL     1      60.478  29.419  -1.893  1.00  0.00     0.302 C 
ATOM     19  O   UNL     1      60.476  29.740  -0.710  1.00  0.00    -0.253 OA
ATOM     20  C   UNL     1      61.640  29.723  -2.790  1.00  0.00     0.034 C 
ENDBRANCH  17  18
ENDBRANCH  15  17
ENDBRANCH   6  15
TORSDOF 7
ENDMDL
