MODEL 1
REMARK VINA RESULT:    -7.175      0.000      0.000
REMARK INTER + INTRA:         -10.759
REMARK INTER:                  -9.723
REMARK INTRA:                  -1.037
REMARK UNBOUND:                -1.067
REMARK SMILES CNC(=O)c1cc(Oc2ccc(NC(=O)Nc3ccc(Cl)c(C(F)(F)F)c3)cc2)ccn1
REMARK SMILES IDX 12 1 9 2 11 3 28 4 10 5 29 6 13 7 16 8 14 9 15 11 17 13
REMARK SMILES IDX 21 14 20 15 22 16 19 17 27 18 18 19 23 20 24 21 25 22 26 23
REMARK SMILES IDX 8 24 7 25 6 26 30 27 5 28 31 29 32 30 3 31 4 32 2 33 1 34
REMARK H PARENT 16 10 13 12 2 35
REMARK Flexibility Score: inf
ROOT
ATOM      1  C   UNL     1      97.042 -10.759  23.748  1.00  0.00     0.043 A 
ATOM      2  C   UNL     1      99.283  -9.603  24.894  1.00  0.00     0.127 A 
ATOM      3  C   UNL     1      98.279 -11.354  23.567  1.00  0.00     0.030 A 
ATOM      4  C   UNL     1      96.901  -9.599  24.492  1.00  0.00     0.030 A 
ATOM      5  C   UNL     1      99.409 -10.772  24.144  1.00  0.00     0.049 A 
ATOM      6  C   UNL     1      98.030  -9.016  25.069  1.00  0.00     0.049 A 
ENDROOT
BRANCH   1   7
ATOM      7  N   UNL     1      95.898 -11.349  23.163  1.00  0.00    -0.308 N 
ATOM      8  N   UNL     1      94.024 -12.650  22.794  1.00  0.00    -0.308 N 
ATOM      9  C   UNL     1      95.059 -12.335  23.708  1.00  0.00     0.323 C 
ATOM     10  H   UNL     1      94.038 -12.140  21.914  1.00  0.00     0.171 HD
ATOM     11  O   UNL     1      95.196 -12.851  24.812  1.00  0.00    -0.248 OA
ATOM     12  H   UNL     1      95.660 -11.013  22.233  1.00  0.00     0.171 HD
BRANCH   8  13
ATOM     13  C   UNL     1      92.985 -13.570  22.938  1.00  0.00     0.043 A 
ATOM     14  Cl  UNL     1      89.647 -16.576  23.386  1.00  0.00    -0.084 Cl
ATOM     15  C   UNL     1      90.910 -15.410  23.226  1.00  0.00     0.053 A 
ATOM     16  C   UNL     1      90.732 -14.089  23.636  1.00  0.00     0.076 A 
ATOM     17  C   UNL     1      92.124 -15.811  22.671  1.00  0.00     0.023 A 
ATOM     18  C   UNL     1      91.770 -13.169  23.493  1.00  0.00     0.040 A 
ATOM     19  C   UNL     1      93.163 -14.891  22.527  1.00  0.00     0.028 A 
BRANCH  16  20
ATOM     20  C   UNL     1      89.444 -13.620  24.234  1.00  0.00     0.417 C 
ATOM     21  F   UNL     1      89.060 -14.334  25.330  1.00  0.00    -0.166 F 
ATOM     22  F   UNL     1      89.479 -12.320  24.647  1.00  0.00    -0.166 F 
ATOM     23  F   UNL     1      88.402 -13.700  23.357  1.00  0.00    -0.166 F 
ENDBRANCH  16  20
ENDBRANCH   8  13
ENDBRANCH   1   7
BRANCH   2  24
ATOM     24  O   UNL     1     100.385  -9.035  25.457  1.00  0.00    -0.457 OA
BRANCH  24  25
ATOM     25  C   UNL     1     100.737  -7.763  25.040  1.00  0.00     0.131 A 
ATOM     26  C   UNL     1     100.822  -7.495  23.690  1.00  0.00     0.081 A 
ATOM     27  C   UNL     1     100.994  -6.791  25.983  1.00  0.00     0.067 A 
ATOM     28  C   UNL     1     101.177  -6.206  23.324  1.00  0.00     0.131 A 
ATOM     29  C   UNL     1     101.340  -5.534  25.516  1.00  0.00     0.116 A 
ATOM     30  N   UNL     1     101.439  -5.216  24.205  1.00  0.00    -0.251 NA
BRANCH  28  31
ATOM     31  C   UNL     1     101.287  -5.849  21.921  1.00  0.00     0.269 C 
ATOM     32  O   UNL     1     100.743  -4.817  21.485  1.00  0.00    -0.268 OA
ATOM     33  N   UNL     1     102.043  -6.699  21.105  1.00  0.00    -0.354 N 
ATOM     34  C   UNL     1     102.265  -6.467  19.696  1.00  0.00     0.143 C 
ATOM     35  H   UNL     1     102.489  -7.510  21.525  1.00  0.00     0.163 HD
ENDBRANCH  28  31
ENDBRANCH  24  25
ENDBRANCH   2  24
TORSDOF 6
ENDMDL
MODEL 2
REMARK VINA RESULT:    -6.921     16.638     18.953
REMARK INTER + INTRA:         -10.416
REMARK INTER:                  -9.453
REMARK INTRA:                  -0.962
REMARK UNBOUND:                -1.067
REMARK SMILES CNC(=O)c1cc(Oc2ccc(NC(=O)Nc3ccc(Cl)c(C(F)(F)F)c3)cc2)ccn1
REMARK SMILES IDX 12 1 9 2 11 3 28 4 10 5 29 6 13 7 16 8 14 9 15 11 17 13
REMARK SMILES IDX 21 14 20 15 22 16 19 17 27 18 18 19 23 20 24 21 25 22 26 23
REMARK SMILES IDX 8 24 7 25 6 26 30 27 5 28 31 29 32 30 3 31 4 32 2 33 1 34
REMARK H PARENT 16 10 13 12 2 35
REMARK Flexibility Score: inf
ROOT
ATOM      1  C   UNL     1      97.431   9.501  23.711  1.00  0.00     0.043 A 
ATOM      2  C   UNL     1     100.166   9.563  24.145  1.00  0.00     0.127 A 
ATOM      3  C   UNL     1      98.272   8.841  22.830  1.00  0.00     0.030 A 
ATOM      4  C   UNL     1      97.928  10.189  24.805  1.00  0.00     0.030 A 
ATOM      5  C   UNL     1      99.650   8.873  23.048  1.00  0.00     0.049 A 
ATOM      6  C   UNL     1      99.305  10.221  25.024  1.00  0.00     0.049 A 
ENDROOT
BRANCH   1   7
ATOM      7  N   UNL     1      96.034   9.468  23.488  1.00  0.00    -0.308 N 
ATOM      8  N   UNL     1      93.802   8.874  23.529  1.00  0.00    -0.308 N 
ATOM      9  C   UNL     1      95.100   8.548  23.992  1.00  0.00     0.323 C 
ATOM     10  H   UNL     1      93.737   9.690  22.924  1.00  0.00     0.171 HD
ATOM     11  O   UNL     1      95.362   7.601  24.725  1.00  0.00    -0.248 OA
ATOM     12  H   UNL     1      95.670  10.205  22.889  1.00  0.00     0.171 HD
BRANCH   8  13
ATOM     13  C   UNL     1      92.596   8.223  23.789  1.00  0.00     0.043 A 
ATOM     14  Cl  UNL     1      88.692   6.102  24.592  1.00  0.00    -0.084 Cl
ATOM     15  C   UNL     1      90.185   6.920  24.308  1.00  0.00     0.053 A 
ATOM     16  C   UNL     1      90.799   7.675  25.307  1.00  0.00     0.076 A 
ATOM     17  C   UNL     1      90.776   6.817  23.049  1.00  0.00     0.023 A 
ATOM     18  C   UNL     1      92.004   8.326  25.048  1.00  0.00     0.040 A 
ATOM     19  C   UNL     1      91.982   7.468  22.789  1.00  0.00     0.028 A 
BRANCH  16  20
ATOM     20  C   UNL     1      90.196   7.812  26.669  1.00  0.00     0.417 C 
ATOM     21  F   UNL     1      91.041   8.370  27.584  1.00  0.00    -0.166 F 
ATOM     22  F   UNL     1      89.076   8.591  26.692  1.00  0.00    -0.166 F 
ATOM     23  F   UNL     1      89.821   6.611  27.197  1.00  0.00    -0.166 F 
ENDBRANCH  16  20
ENDBRANCH   8  13
ENDBRANCH   1   7
BRANCH   2  24
ATOM     24  O   UNL     1     101.510   9.594  24.358  1.00  0.00    -0.457 OA
BRANCH  24  25
ATOM     25  C   UNL     1     102.194   8.390  24.334  1.00  0.00     0.131 A 
ATOM     26  C   UNL     1     101.882   7.419  25.262  1.00  0.00     0.081 A 
ATOM     27  C   UNL     1     103.169   8.188  23.381  1.00  0.00     0.067 A 
ATOM     28  C   UNL     1     102.594   6.232  25.195  1.00  0.00     0.131 A 
ATOM     29  C   UNL     1     103.823   6.967  23.397  1.00  0.00     0.116 A 
ATOM     30  N   UNL     1     103.559   5.980  24.284  1.00  0.00    -0.251 NA
BRANCH  28  31
ATOM     31  C   UNL     1     102.322   5.162  26.139  1.00  0.00     0.269 C 
ATOM     32  O   UNL     1     101.236   5.113  26.746  1.00  0.00    -0.268 OA
ATOM     33  N   UNL     1     103.320   4.195  26.309  1.00  0.00    -0.354 N 
ATOM     34  C   UNL     1     103.191   3.059  27.192  1.00  0.00     0.143 C 
ATOM     35  H   UNL     1     104.173   4.272  25.762  1.00  0.00     0.163 HD
ENDBRANCH  28  31
ENDBRANCH  24  25
ENDBRANCH   2  24
TORSDOF 6
ENDMDL
MODEL 3
REMARK VINA RESULT:    -6.778      1.628      2.660
REMARK INTER + INTRA:         -10.222
REMARK INTER:                  -9.918
REMARK INTRA:                  -0.304
REMARK UNBOUND:                -1.067
REMARK SMILES CNC(=O)c1cc(Oc2ccc(NC(=O)Nc3ccc(Cl)c(C(F)(F)F)c3)cc2)ccn1
REMARK SMILES IDX 12 1 9 2 11 3 28 4 10 5 29 6 13 7 16 8 14 9 15 11 17 13
REMARK SMILES IDX 21 14 20 15 22 16 19 17 27 18 18 19 23 20 24 21 25 22 26 23
REMARK SMILES IDX 8 24 7 25 6 26 30 27 5 28 31 29 32 30 3 31 4 32 2 33 1 34
REMARK H PARENT 16 10 13 12 2 35
REMARK Flexibility Score: inf
ROOT
ATOM      1  C   UNL     1      96.695 -11.202  24.573  1.00  0.00     0.043 A 
ATOM      2  C   UNL     1      99.253 -10.146  24.674  1.00  0.00     0.127 A 
ATOM      3  C   UNL     1      97.743 -11.911  24.011  1.00  0.00     0.030 A 
ATOM      4  C   UNL     1      96.898  -9.977  25.186  1.00  0.00     0.030 A 
ATOM      5  C   UNL     1      99.032 -11.379  24.061  1.00  0.00     0.049 A 
ATOM      6  C   UNL     1      98.187  -9.444  25.236  1.00  0.00     0.049 A 
ENDROOT
BRANCH   1   7
ATOM      7  N   UNL     1      95.388 -11.742  24.522  1.00  0.00    -0.308 N 
ATOM      8  N   UNL     1      93.450 -12.777  23.808  1.00  0.00    -0.308 N 
ATOM      9  C   UNL     1      94.761 -12.385  23.442  1.00  0.00     0.323 C 
ATOM     10  H   UNL     1      93.165 -12.544  24.756  1.00  0.00     0.171 HD
ATOM     11  O   UNL     1      95.267 -12.583  22.343  1.00  0.00    -0.248 OA
ATOM     12  H   UNL     1      94.843 -11.649  25.375  1.00  0.00     0.171 HD
BRANCH   8  13
ATOM     13  C   UNL     1      92.492 -13.438  23.039  1.00  0.00     0.043 A 
ATOM     14  Cl  UNL     1      89.422 -15.598  20.530  1.00  0.00    -0.084 Cl
ATOM     15  C   UNL     1      90.578 -14.761  21.501  1.00  0.00     0.053 A 
ATOM     16  C   UNL     1      90.182 -13.799  22.430  1.00  0.00     0.076 A 
ATOM     17  C   UNL     1      91.930 -15.061  21.340  1.00  0.00     0.023 A 
ATOM     18  C   UNL     1      91.139 -13.138  23.200  1.00  0.00     0.040 A 
ATOM     19  C   UNL     1      92.888 -14.400  22.109  1.00  0.00     0.028 A 
BRANCH  16  20
ATOM     20  C   UNL     1      88.743 -13.447  22.631  1.00  0.00     0.417 C 
ATOM     21  F   UNL     1      88.522 -12.664  23.726  1.00  0.00    -0.166 F 
ATOM     22  F   UNL     1      88.199 -12.763  21.584  1.00  0.00    -0.166 F 
ATOM     23  F   UNL     1      87.956 -14.548  22.800  1.00  0.00    -0.166 F 
ENDBRANCH  16  20
ENDBRANCH   8  13
ENDBRANCH   1   7
BRANCH   2  24
ATOM     24  O   UNL     1     100.511  -9.626  24.722  1.00  0.00    -0.457 OA
BRANCH  24  25
ATOM     25  C   UNL     1     100.687  -8.325  24.283  1.00  0.00     0.131 A 
ATOM     26  C   UNL     1     100.912  -7.326  25.206  1.00  0.00     0.081 A 
ATOM     27  C   UNL     1     100.636  -8.058  22.931  1.00  0.00     0.067 A 
ATOM     28  C   UNL     1     101.084  -6.042  24.715  1.00  0.00     0.131 A 
ATOM     29  C   UNL     1     100.821  -6.741  22.541  1.00  0.00     0.116 A 
ATOM     30  N   UNL     1     101.044  -5.722  23.402  1.00  0.00    -0.251 NA
BRANCH  28  31
ATOM     31  C   UNL     1     101.325  -4.937  25.626  1.00  0.00     0.269 C 
ATOM     32  O   UNL     1     102.180  -4.072  25.361  1.00  0.00    -0.268 OA
ATOM     33  N   UNL     1     100.541  -4.885  26.785  1.00  0.00    -0.354 N 
ATOM     34  C   UNL     1     100.644  -3.838  27.775  1.00  0.00     0.143 C 
ATOM     35  H   UNL     1      99.836  -5.603  26.931  1.00  0.00     0.163 HD
ENDBRANCH  28  31
ENDBRANCH  24  25
ENDBRANCH   2  24
TORSDOF 6
ENDMDL
MODEL 4
REMARK VINA RESULT:    -6.766     20.374     23.237
REMARK INTER + INTRA:         -10.207
REMARK INTER:                  -9.188
REMARK INTRA:                  -1.019
REMARK UNBOUND:                -1.067
REMARK SMILES CNC(=O)c1cc(Oc2ccc(NC(=O)Nc3ccc(Cl)c(C(F)(F)F)c3)cc2)ccn1
REMARK SMILES IDX 12 1 9 2 11 3 28 4 10 5 29 6 13 7 16 8 14 9 15 11 17 13
REMARK SMILES IDX 21 14 20 15 22 16 19 17 27 18 18 19 23 20 24 21 25 22 26 23
REMARK SMILES IDX 8 24 7 25 6 26 30 27 5 28 31 29 32 30 3 31 4 32 2 33 1 34
REMARK H PARENT 16 10 13 12 2 35
REMARK Flexibility Score: inf
ROOT
ATOM      1  C   UNL     1      88.757   6.687  11.351  1.00  0.00     0.043 A 
ATOM      2  C   UNL     1      86.743   4.943  10.600  1.00  0.00     0.127 A 
ATOM      3  C   UNL     1      87.864   6.233  12.306  1.00  0.00     0.030 A 
ATOM      4  C   UNL     1      88.666   6.287  10.029  1.00  0.00     0.030 A 
ATOM      5  C   UNL     1      86.848   5.354  11.928  1.00  0.00     0.049 A 
ATOM      6  C   UNL     1      87.651   5.409   9.650  1.00  0.00     0.049 A 
ENDROOT
BRANCH   1   7
ATOM      7  N   UNL     1      89.787   7.579  11.736  1.00  0.00    -0.308 N 
ATOM      8  N   UNL     1      91.696   8.479  12.676  1.00  0.00    -0.308 N 
ATOM      9  C   UNL     1      90.911   7.309  12.534  1.00  0.00     0.323 C 
ATOM     10  H   UNL     1      91.347   9.309  12.202  1.00  0.00     0.171 HD
ATOM     11  O   UNL     1      91.179   6.223  13.036  1.00  0.00    -0.248 OA
ATOM     12  H   UNL     1      89.694   8.530  11.387  1.00  0.00     0.171 HD
BRANCH   8  13
ATOM     13  C   UNL     1      92.886   8.648  13.384  1.00  0.00     0.043 A 
ATOM     14  Cl  UNL     1      96.759   9.187  15.640  1.00  0.00    -0.084 Cl
ATOM     15  C   UNL     1      95.266   8.987  14.798  1.00  0.00     0.053 A 
ATOM     16  C   UNL     1      94.042   9.114  15.453  1.00  0.00     0.076 A 
ATOM     17  C   UNL     1      95.301   8.690  13.436  1.00  0.00     0.023 A 
ATOM     18  C   UNL     1      92.851   8.946  14.746  1.00  0.00     0.040 A 
ATOM     19  C   UNL     1      94.110   8.521  12.728  1.00  0.00     0.028 A 
BRANCH  16  20
ATOM     20  C   UNL     1      93.962   9.430  16.912  1.00  0.00     0.417 C 
ATOM     21  F   UNL     1      94.692   8.583  17.693  1.00  0.00    -0.166 F 
ATOM     22  F   UNL     1      94.409  10.681  17.223  1.00  0.00    -0.166 F 
ATOM     23  F   UNL     1      92.685   9.366  17.391  1.00  0.00    -0.166 F 
ENDBRANCH  16  20
ENDBRANCH   8  13
ENDBRANCH   1   7
BRANCH   2  24
ATOM     24  O   UNL     1      85.751   4.085  10.230  1.00  0.00    -0.457 OA
BRANCH  24  25
ATOM     25  C   UNL     1      85.919   2.743  10.524  1.00  0.00     0.131 A 
ATOM     26  C   UNL     1      86.972   2.055   9.961  1.00  0.00     0.081 A 
ATOM     27  C   UNL     1      85.029   2.124  11.376  1.00  0.00     0.067 A 
ATOM     28  C   UNL     1      87.097   0.714  10.288  1.00  0.00     0.131 A 
ATOM     29  C   UNL     1      85.240   0.780  11.641  1.00  0.00     0.116 A 
ATOM     30  N   UNL     1      86.256   0.057  11.116  1.00  0.00    -0.251 NA
BRANCH  28  31
ATOM     31  C   UNL     1      88.182  -0.076   9.733  1.00  0.00     0.269 C 
ATOM     32  O   UNL     1      88.573  -1.108  10.309  1.00  0.00    -0.268 OA
ATOM     33  N   UNL     1      88.738   0.365   8.527  1.00  0.00    -0.354 N 
ATOM     34  C   UNL     1      89.805  -0.324   7.838  1.00  0.00     0.143 C 
ATOM     35  H   UNL     1      88.356   1.198   8.088  1.00  0.00     0.163 HD
ENDBRANCH  28  31
ENDBRANCH  24  25
ENDBRANCH   2  24
TORSDOF 6
ENDMDL
MODEL 5
REMARK VINA RESULT:    -6.755     17.200     20.717
REMARK INTER + INTRA:         -10.192
REMARK INTER:                  -9.533
REMARK INTRA:                  -0.659
REMARK UNBOUND:                -1.067
REMARK SMILES CNC(=O)c1cc(Oc2ccc(NC(=O)Nc3ccc(Cl)c(C(F)(F)F)c3)cc2)ccn1
REMARK SMILES IDX 12 1 9 2 11 3 28 4 10 5 29 6 13 7 16 8 14 9 15 11 17 13
REMARK SMILES IDX 21 14 20 15 22 16 19 17 27 18 18 19 23 20 24 21 25 22 26 23
REMARK SMILES IDX 8 24 7 25 6 26 30 27 5 28 31 29 32 30 3 31 4 32 2 33 1 34
REMARK H PARENT 16 10 13 12 2 35
REMARK Flexibility Score: inf
ROOT
ATOM      1  C   UNL     1      97.255   8.478  25.416  1.00  0.00     0.043 A 
ATOM      2  C   UNL     1      95.066   9.852  26.411  1.00  0.00     0.127 A 
ATOM      3  C   UNL     1      96.429   7.859  26.339  1.00  0.00     0.030 A 
ATOM      4  C   UNL     1      97.009   9.769  24.979  1.00  0.00     0.030 A 
ATOM      5  C   UNL     1      95.326   8.550  26.841  1.00  0.00     0.049 A 
ATOM      6  C   UNL     1      95.907  10.462  25.481  1.00  0.00     0.049 A 
ENDROOT
BRANCH   1   7
ATOM      7  N   UNL     1      98.374   7.776  24.908  1.00  0.00    -0.308 N 
ATOM      8  N   UNL     1     100.433   6.751  24.701  1.00  0.00    -0.308 N 
ATOM      9  C   UNL     1      99.574   7.467  25.569  1.00  0.00     0.323 C 
ATOM     10  H   UNL     1     100.074   6.573  23.766  1.00  0.00     0.171 HD
ATOM     11  O   UNL     1      99.843   7.769  26.726  1.00  0.00    -0.248 OA
ATOM     12  H   UNL     1      98.290   7.460  23.944  1.00  0.00     0.171 HD
BRANCH   8  13
ATOM     13  C   UNL     1     101.713   6.256  24.956  1.00  0.00     0.043 A 
ATOM     14  Cl  UNL     1     105.869   4.687  25.760  1.00  0.00    -0.084 Cl
ATOM     15  C   UNL     1     104.271   5.269  25.466  1.00  0.00     0.053 A 
ATOM     16  C   UNL     1     103.153   4.602  25.968  1.00  0.00     0.076 A 
ATOM     17  C   UNL     1     104.109   6.429  24.709  1.00  0.00     0.023 A 
ATOM     18  C   UNL     1     101.874   5.096  25.713  1.00  0.00     0.040 A 
ATOM     19  C   UNL     1     102.830   6.923  24.454  1.00  0.00     0.028 A 
BRANCH  16  20
ATOM     20  C   UNL     1     103.284   3.355  26.782  1.00  0.00     0.417 C 
ATOM     21  F   UNL     1     102.092   2.884  27.250  1.00  0.00    -0.166 F 
ATOM     22  F   UNL     1     103.837   2.313  26.095  1.00  0.00    -0.166 F 
ATOM     23  F   UNL     1     104.070   3.530  27.883  1.00  0.00    -0.166 F 
ENDBRANCH  16  20
ENDBRANCH   8  13
ENDBRANCH   1   7
BRANCH   2  24
ATOM     24  O   UNL     1      93.990  10.527  26.901  1.00  0.00    -0.457 OA
BRANCH  24  25
ATOM     25  C   UNL     1      92.764  10.313  26.294  1.00  0.00     0.131 A 
ATOM     26  C   UNL     1      92.643   9.311  25.354  1.00  0.00     0.081 A 
ATOM     27  C   UNL     1      91.692  11.105  26.643  1.00  0.00     0.067 A 
ATOM     28  C   UNL     1      91.396   9.136  24.777  1.00  0.00     0.131 A 
ATOM     29  C   UNL     1      90.487  10.851  26.008  1.00  0.00     0.116 A 
ATOM     30  N   UNL     1      90.311   9.882  25.080  1.00  0.00    -0.251 NA
BRANCH  28  31
ATOM     31  C   UNL     1      91.190   8.101  23.779  1.00  0.00     0.269 C 
ATOM     32  O   UNL     1      91.803   8.134  22.696  1.00  0.00    -0.268 OA
ATOM     33  N   UNL     1      90.300   7.070  24.105  1.00  0.00    -0.354 N 
ATOM     34  C   UNL     1      90.008   5.958  23.230  1.00  0.00     0.143 C 
ATOM     35  H   UNL     1      89.853   7.081  25.018  1.00  0.00     0.163 HD
ENDBRANCH  28  31
ENDBRANCH  24  25
ENDBRANCH   2  24
TORSDOF 6
ENDMDL
MODEL 6
REMARK VINA RESULT:    -6.656      5.905     11.711
REMARK INTER + INTRA:         -10.057
REMARK INTER:                  -9.010
REMARK INTRA:                  -1.047
REMARK UNBOUND:                -1.067
REMARK SMILES CNC(=O)c1cc(Oc2ccc(NC(=O)Nc3ccc(Cl)c(C(F)(F)F)c3)cc2)ccn1
REMARK SMILES IDX 12 1 9 2 11 3 28 4 10 5 29 6 13 7 16 8 14 9 15 11 17 13
REMARK SMILES IDX 21 14 20 15 22 16 19 17 27 18 18 19 23 20 24 21 25 22 26 23
REMARK SMILES IDX 8 24 7 25 6 26 30 27 5 28 31 29 32 30 3 31 4 32 2 33 1 34
REMARK H PARENT 16 10 13 12 2 35
REMARK Flexibility Score: inf
ROOT
ATOM      1  C   UNL     1      96.484 -12.519  23.523  1.00  0.00     0.043 A 
ATOM      2  C   UNL     1      94.103 -13.897  23.204  1.00  0.00     0.127 A 
ATOM      3  C   UNL     1      95.853 -13.049  24.636  1.00  0.00     0.030 A 
ATOM      4  C   UNL     1      95.951 -12.665  22.253  1.00  0.00     0.030 A 
ATOM      5  C   UNL     1      94.654 -13.743  24.476  1.00  0.00     0.049 A 
ATOM      6  C   UNL     1      94.752 -13.359  22.092  1.00  0.00     0.049 A 
ENDROOT
BRANCH   1   7
ATOM      7  N   UNL     1      97.701 -11.815  23.687  1.00  0.00    -0.308 N 
ATOM      8  N   UNL     1      99.260 -10.146  24.031  1.00  0.00    -0.308 N 
ATOM      9  C   UNL     1      97.879 -10.444  23.931  1.00  0.00     0.323 C 
ATOM     10  H   UNL     1      99.894 -10.933  23.915  1.00  0.00     0.171 HD
ATOM     11  O   UNL     1      96.978  -9.620  24.042  1.00  0.00    -0.248 OA
ATOM     12  H   UNL     1      98.544 -12.379  23.618  1.00  0.00     0.171 HD
BRANCH   8  13
ATOM     13  C   UNL     1      99.871  -8.914  24.265  1.00  0.00     0.043 A 
ATOM     14  Cl  UNL     1     101.837  -4.928  25.061  1.00  0.00    -0.084 Cl
ATOM     15  C   UNL     1     101.091  -6.450  24.733  1.00  0.00     0.053 A 
ATOM     16  C   UNL     1     101.007  -6.951  23.434  1.00  0.00     0.076 A 
ATOM     17  C   UNL     1     100.564  -7.180  25.798  1.00  0.00     0.023 A 
ATOM     18  C   UNL     1     100.398  -8.183  23.200  1.00  0.00     0.040 A 
ATOM     19  C   UNL     1      99.954  -8.413  25.564  1.00  0.00     0.028 A 
BRANCH  16  20
ATOM     20  C   UNL     1     101.558  -6.198  22.266  1.00  0.00     0.417 C 
ATOM     21  F   UNL     1     100.915  -5.019  22.026  1.00  0.00    -0.166 F 
ATOM     22  F   UNL     1     102.874  -5.867  22.404  1.00  0.00    -0.166 F 
ATOM     23  F   UNL     1     101.476  -6.906  21.103  1.00  0.00    -0.166 F 
ENDBRANCH  16  20
ENDBRANCH   8  13
ENDBRANCH   1   7
BRANCH   2  24
ATOM     24  O   UNL     1      92.933 -14.574  23.047  1.00  0.00    -0.457 OA
BRANCH  24  25
ATOM     25  C   UNL     1      91.813 -14.084  23.698  1.00  0.00     0.131 A 
ATOM     26  C   UNL     1      91.113 -14.910  24.551  1.00  0.00     0.081 A 
ATOM     27  C   UNL     1      91.425 -12.779  23.480  1.00  0.00     0.067 A 
ATOM     28  C   UNL     1      90.002 -14.371  25.179  1.00  0.00     0.131 A 
ATOM     29  C   UNL     1      90.300 -12.335  24.155  1.00  0.00     0.116 A 
ATOM     30  N   UNL     1      89.575 -13.101  25.003  1.00  0.00    -0.251 NA
BRANCH  28  31
ATOM     31  C   UNL     1      89.213 -15.180  26.092  1.00  0.00     0.269 C 
ATOM     32  O   UNL     1      88.352 -14.655  26.821  1.00  0.00    -0.268 OA
ATOM     33  N   UNL     1      89.454 -16.559  26.090  1.00  0.00    -0.354 N 
ATOM     34  C   UNL     1      88.737 -17.498  26.922  1.00  0.00     0.143 C 
ATOM     35  H   UNL     1      90.149 -16.933  25.449  1.00  0.00     0.163 HD
ENDBRANCH  28  31
ENDBRANCH  24  25
ENDBRANCH   2  24
TORSDOF 6
ENDMDL
MODEL 7
REMARK VINA RESULT:    -6.645     17.058     18.597
REMARK INTER + INTRA:         -10.043
REMARK INTER:                  -9.459
REMARK INTRA:                  -0.584
REMARK UNBOUND:                -1.067
REMARK SMILES CNC(=O)c1cc(Oc2ccc(NC(=O)Nc3ccc(Cl)c(C(F)(F)F)c3)cc2)ccn1
REMARK SMILES IDX 12 1 9 2 11 3 28 4 10 5 29 6 13 7 16 8 14 9 15 11 17 13
REMARK SMILES IDX 21 14 20 15 22 16 19 17 27 18 18 19 23 20 24 21 25 22 26 23
REMARK SMILES IDX 8 24 7 25 6 26 30 27 5 28 31 29 32 30 3 31 4 32 2 33 1 34
REMARK H PARENT 16 10 13 12 2 35
REMARK Flexibility Score: inf
ROOT
ATOM      1  C   UNL     1      98.504   8.504  23.658  1.00  0.00     0.043 A 
ATOM      2  C   UNL     1     101.198   7.870  23.745  1.00  0.00     0.127 A 
ATOM      3  C   UNL     1      99.079   7.844  22.585  1.00  0.00     0.030 A 
ATOM      4  C   UNL     1      99.246   8.853  24.774  1.00  0.00     0.030 A 
ATOM      5  C   UNL     1     100.437   7.524  22.629  1.00  0.00     0.049 A 
ATOM      6  C   UNL     1     100.603   8.535  24.818  1.00  0.00     0.049 A 
ENDROOT
BRANCH   1   7
ATOM      7  N   UNL     1      97.127   8.828  23.613  1.00  0.00    -0.308 N 
ATOM      8  N   UNL     1      94.857   8.899  24.038  1.00  0.00    -0.308 N 
ATOM      9  C   UNL     1      96.090   8.306  24.403  1.00  0.00     0.323 C 
ATOM     10  H   UNL     1      94.899   9.586  23.289  1.00  0.00     0.171 HD
ATOM     11  O   UNL     1      96.225   7.461  25.282  1.00  0.00    -0.248 OA
ATOM     12  H   UNL     1      96.864   9.525  22.921  1.00  0.00     0.171 HD
BRANCH   8  13
ATOM     13  C   UNL     1      93.588   8.666  24.568  1.00  0.00     0.043 A 
ATOM     14  Cl  UNL     1      89.490   7.932  26.315  1.00  0.00    -0.084 Cl
ATOM     15  C   UNL     1      91.050   8.200  25.627  1.00  0.00     0.053 A 
ATOM     16  C   UNL     1      91.401   7.655  24.392  1.00  0.00     0.076 A 
ATOM     17  C   UNL     1      91.968   8.978  26.332  1.00  0.00     0.023 A 
ATOM     18  C   UNL     1      92.670   7.888  23.862  1.00  0.00     0.040 A 
ATOM     19  C   UNL     1      93.237   9.211  25.803  1.00  0.00     0.028 A 
BRANCH  16  20
ATOM     20  C   UNL     1      90.447   6.814  23.606  1.00  0.00     0.417 C 
ATOM     21  F   UNL     1      90.869   6.556  22.335  1.00  0.00    -0.166 F 
ATOM     22  F   UNL     1      90.214   5.591  24.163  1.00  0.00    -0.166 F 
ATOM     23  F   UNL     1      89.221   7.399  23.476  1.00  0.00    -0.166 F 
ENDBRANCH  16  20
ENDBRANCH   8  13
ENDBRANCH   1   7
BRANCH   2  24
ATOM     24  O   UNL     1     102.523   7.559  23.787  1.00  0.00    -0.457 OA
BRANCH  24  25
ATOM     25  C   UNL     1     102.900   6.449  24.524  1.00  0.00     0.131 A 
ATOM     26  C   UNL     1     104.236   6.239  24.791  1.00  0.00     0.081 A 
ATOM     27  C   UNL     1     101.931   5.579  24.977  1.00  0.00     0.067 A 
ATOM     28  C   UNL     1     104.562   5.115  25.533  1.00  0.00     0.131 A 
ATOM     29  C   UNL     1     102.359   4.485  25.711  1.00  0.00     0.116 A 
ATOM     30  N   UNL     1     103.655   4.230  26.002  1.00  0.00    -0.251 NA
BRANCH  28  31
ATOM     31  C   UNL     1     105.949   4.827  25.854  1.00  0.00     0.269 C 
ATOM     32  O   UNL     1     106.865   5.205  25.101  1.00  0.00    -0.268 OA
ATOM     33  N   UNL     1     106.196   4.136  27.046  1.00  0.00    -0.354 N 
ATOM     34  C   UNL     1     107.520   3.796  27.515  1.00  0.00     0.143 C 
ATOM     35  H   UNL     1     105.408   3.881  27.636  1.00  0.00     0.163 HD
ENDBRANCH  28  31
ENDBRANCH  24  25
ENDBRANCH   2  24
TORSDOF 6
ENDMDL
MODEL 8
REMARK VINA RESULT:    -6.599      5.946     11.429
REMARK INTER + INTRA:          -9.981
REMARK INTER:                  -8.927
REMARK INTRA:                  -1.054
REMARK UNBOUND:                -1.067
REMARK SMILES CNC(=O)c1cc(Oc2ccc(NC(=O)Nc3ccc(Cl)c(C(F)(F)F)c3)cc2)ccn1
REMARK SMILES IDX 12 1 9 2 11 3 28 4 10 5 29 6 13 7 16 8 14 9 15 11 17 13
REMARK SMILES IDX 21 14 20 15 22 16 19 17 27 18 18 19 23 20 24 21 25 22 26 23
REMARK SMILES IDX 8 24 7 25 6 26 30 27 5 28 31 29 32 30 3 31 4 32 2 33 1 34
REMARK H PARENT 16 10 13 12 2 35
REMARK Flexibility Score: inf
ROOT
ATOM      1  C   UNL     1      96.537 -11.259  23.129  1.00  0.00     0.043 A 
ATOM      2  C   UNL     1      95.100 -13.611  23.402  1.00  0.00     0.127 A 
ATOM      3  C   UNL     1      96.178 -11.969  21.996  1.00  0.00     0.030 A 
ATOM      4  C   UNL     1      96.191 -11.700  24.396  1.00  0.00     0.030 A 
ATOM      5  C   UNL     1      95.454 -13.154  22.132  1.00  0.00     0.049 A 
ATOM      6  C   UNL     1      95.468 -12.884  24.534  1.00  0.00     0.049 A 
ENDROOT
BRANCH   1   7
ATOM      7  N   UNL     1      97.271 -10.058  22.990  1.00  0.00    -0.308 N 
ATOM      8  N   UNL     1      98.971  -8.494  22.978  1.00  0.00    -0.308 N 
ATOM      9  C   UNL     1      98.635  -9.843  23.248  1.00  0.00     0.323 C 
ATOM     10  H   UNL     1      98.211  -7.903  22.653  1.00  0.00     0.171 HD
ATOM     11  O   UNL     1      99.423 -10.693  23.647  1.00  0.00    -0.248 OA
ATOM     12  H   UNL     1      96.738  -9.256  22.662  1.00  0.00     0.171 HD
BRANCH   8  13
ATOM     13  C   UNL     1     100.210  -7.865  23.102  1.00  0.00     0.043 A 
ATOM     14  Cl  UNL     1     104.232  -5.845  23.468  1.00  0.00    -0.084 Cl
ATOM     15  C   UNL     1     102.687  -6.607  23.349  1.00  0.00     0.053 A 
ATOM     16  C   UNL     1     101.724  -6.451  24.345  1.00  0.00     0.076 A 
ATOM     17  C   UNL     1     102.412  -7.391  22.229  1.00  0.00     0.023 A 
ATOM     18  C   UNL     1     100.485  -7.080  24.222  1.00  0.00     0.040 A 
ATOM     19  C   UNL     1     101.174  -8.020  22.105  1.00  0.00     0.028 A 
BRANCH  16  20
ATOM     20  C   UNL     1     101.980  -5.621  25.562  1.00  0.00     0.417 C 
ATOM     21  F   UNL     1     100.926  -5.582  26.426  1.00  0.00    -0.166 F 
ATOM     22  F   UNL     1     103.038  -6.057  26.305  1.00  0.00    -0.166 F 
ATOM     23  F   UNL     1     102.256  -4.320  25.256  1.00  0.00    -0.166 F 
ENDBRANCH  16  20
ENDBRANCH   8  13
ENDBRANCH   1   7
BRANCH   2  24
ATOM     24  O   UNL     1      94.394 -14.768  23.535  1.00  0.00    -0.457 OA
BRANCH  24  25
ATOM     25  C   UNL     1      93.167 -14.703  24.173  1.00  0.00     0.131 A 
ATOM     26  C   UNL     1      92.129 -14.024  23.571  1.00  0.00     0.081 A 
ATOM     27  C   UNL     1      93.010 -15.321  25.396  1.00  0.00     0.067 A 
ATOM     28  C   UNL     1      90.921 -13.990  24.250  1.00  0.00     0.131 A 
ATOM     29  C   UNL     1      91.763 -15.229  25.993  1.00  0.00     0.116 A 
ATOM     30  N   UNL     1      90.710 -14.577  25.448  1.00  0.00    -0.251 NA
BRANCH  28  31
ATOM     31  C   UNL     1      89.781 -13.294  23.679  1.00  0.00     0.269 C 
ATOM     32  O   UNL     1      89.216 -12.381  24.309  1.00  0.00    -0.268 OA
ATOM     33  N   UNL     1      89.375 -13.682  22.396  1.00  0.00    -0.354 N 
ATOM     34  C   UNL     1      88.276 -13.071  21.685  1.00  0.00     0.143 C 
ATOM     35  H   UNL     1      89.896 -14.413  21.919  1.00  0.00     0.163 HD
ENDBRANCH  28  31
ENDBRANCH  24  25
ENDBRANCH   2  24
TORSDOF 6
ENDMDL
MODEL 9
REMARK VINA RESULT:    -6.566     16.412     18.807
REMARK INTER + INTRA:          -9.937
REMARK INTER:                  -8.934
REMARK INTRA:                  -1.003
REMARK UNBOUND:                -1.067
REMARK SMILES CNC(=O)c1cc(Oc2ccc(NC(=O)Nc3ccc(Cl)c(C(F)(F)F)c3)cc2)ccn1
REMARK SMILES IDX 12 1 9 2 11 3 28 4 10 5 29 6 13 7 16 8 14 9 15 11 17 13
REMARK SMILES IDX 21 14 20 15 22 16 19 17 27 18 18 19 23 20 24 21 25 22 26 23
REMARK SMILES IDX 8 24 7 25 6 26 30 27 5 28 31 29 32 30 3 31 4 32 2 33 1 34
REMARK H PARENT 16 10 13 12 2 35
REMARK Flexibility Score: inf
ROOT
ATOM      1  C   UNL     1      98.106   9.011  23.042  1.00  0.00     0.043 A 
ATOM      2  C   UNL     1     100.861   8.753  22.929  1.00  0.00     0.127 A 
ATOM      3  C   UNL     1      98.896   9.823  23.839  1.00  0.00     0.030 A 
ATOM      4  C   UNL     1      98.664   8.073  22.189  1.00  0.00     0.030 A 
ATOM      5  C   UNL     1     100.284   9.693  23.782  1.00  0.00     0.049 A 
ATOM      6  C   UNL     1     100.052   7.943  22.133  1.00  0.00     0.049 A 
ENDROOT
BRANCH   1   7
ATOM      7  N   UNL     1      96.698   9.143  23.100  1.00  0.00    -0.308 N 
ATOM      8  N   UNL     1      94.478   8.911  23.696  1.00  0.00    -0.308 N 
ATOM      9  C   UNL     1      95.804   8.496  23.969  1.00  0.00     0.323 C 
ATOM     10  H   UNL     1      94.370   9.586  22.942  1.00  0.00     0.171 HD
ATOM     11  O   UNL     1      96.119   7.691  24.839  1.00  0.00    -0.248 OA
ATOM     12  H   UNL     1      96.292   9.788  22.427  1.00  0.00     0.171 HD
BRANCH   8  13
ATOM     13  C   UNL     1      93.296   8.515  24.321  1.00  0.00     0.043 A 
ATOM     14  Cl  UNL     1      89.480   7.253  26.377  1.00  0.00    -0.084 Cl
ATOM     15  C   UNL     1      90.932   7.724  25.572  1.00  0.00     0.053 A 
ATOM     16  C   UNL     1      91.223   7.275  24.283  1.00  0.00     0.076 A 
ATOM     17  C   UNL     1      91.822   8.567  26.234  1.00  0.00     0.023 A 
ATOM     18  C   UNL     1      92.405   7.671  23.658  1.00  0.00     0.040 A 
ATOM     19  C   UNL     1      93.004   8.964  25.609  1.00  0.00     0.028 A 
BRANCH  16  20
ATOM     20  C   UNL     1      90.296   6.368  23.540  1.00  0.00     0.417 C 
ATOM     21  F   UNL     1      90.215   5.115  24.073  1.00  0.00    -0.166 F 
ATOM     22  F   UNL     1      89.010   6.823  23.496  1.00  0.00    -0.166 F 
ATOM     23  F   UNL     1      90.669   6.193  22.239  1.00  0.00    -0.166 F 
ENDBRANCH  16  20
ENDBRANCH   8  13
ENDBRANCH   1   7
BRANCH   2  24
ATOM     24  O   UNL     1     102.215   8.626  22.874  1.00  0.00    -0.457 OA
BRANCH  24  25
ATOM     25  C   UNL     1     102.853   8.061  23.965  1.00  0.00     0.131 A 
ATOM     26  C   UNL     1     102.384   6.871  24.479  1.00  0.00     0.081 A 
ATOM     27  C   UNL     1     103.946   8.699  24.512  1.00  0.00     0.067 A 
ATOM     28  C   UNL     1     103.058   6.346  25.570  1.00  0.00     0.131 A 
ATOM     29  C   UNL     1     104.551   8.093  25.602  1.00  0.00     0.116 A 
ATOM     30  N   UNL     1     104.133   6.928  26.146  1.00  0.00    -0.251 NA
BRANCH  28  31
ATOM     31  C   UNL     1     102.623   5.095  26.167  1.00  0.00     0.269 C 
ATOM     32  O   UNL     1     101.411   4.818  26.244  1.00  0.00    -0.268 OA
ATOM     33  N   UNL     1     103.621   4.224  26.620  1.00  0.00    -0.354 N 
ATOM     34  C   UNL     1     103.349   2.935  27.214  1.00  0.00     0.143 C 
ATOM     35  H   UNL     1     104.594   4.492  26.501  1.00  0.00     0.163 HD
ENDBRANCH  28  31
ENDBRANCH  24  25
ENDBRANCH   2  24
TORSDOF 6
ENDMDL
MODEL 10
REMARK VINA RESULT:    -6.565      1.717      2.912
REMARK INTER + INTRA:          -9.935
REMARK INTER:                  -9.596
REMARK INTRA:                  -0.339
REMARK UNBOUND:                -1.067
REMARK SMILES CNC(=O)c1cc(Oc2ccc(NC(=O)Nc3ccc(Cl)c(C(F)(F)F)c3)cc2)ccn1
REMARK SMILES IDX 12 1 9 2 11 3 28 4 10 5 29 6 13 7 16 8 14 9 15 11 17 13
REMARK SMILES IDX 21 14 20 15 22 16 19 17 27 18 18 19 23 20 24 21 25 22 26 23
REMARK SMILES IDX 8 24 7 25 6 26 30 27 5 28 31 29 32 30 3 31 4 32 2 33 1 34
REMARK H PARENT 16 10 13 12 2 35
REMARK Flexibility Score: inf
ROOT
ATOM      1  C   UNL     1      97.368 -11.519  22.781  1.00  0.00     0.043 A 
ATOM      2  C   UNL     1      99.794 -10.345  23.420  1.00  0.00     0.127 A 
ATOM      3  C   UNL     1      97.453 -10.139  22.859  1.00  0.00     0.030 A 
ATOM      4  C   UNL     1      98.470 -12.324  23.014  1.00  0.00     0.030 A 
ATOM      5  C   UNL     1      98.675  -9.547  23.181  1.00  0.00     0.049 A 
ATOM      6  C   UNL     1      99.692 -11.733  23.336  1.00  0.00     0.049 A 
ENDROOT
BRANCH   1   7
ATOM      7  N   UNL     1      96.128 -12.118  22.455  1.00  0.00    -0.308 N 
ATOM      8  N   UNL     1      93.989 -12.980  22.578  1.00  0.00    -0.308 N 
ATOM      9  C   UNL     1      95.036 -12.363  23.304  1.00  0.00     0.323 C 
ATOM     10  H   UNL     1      94.171 -13.151  21.592  1.00  0.00     0.171 HD
ATOM     11  O   UNL     1      94.990 -12.084  24.497  1.00  0.00    -0.248 OA
ATOM     12  H   UNL     1      96.024 -12.404  21.484  1.00  0.00     0.171 HD
BRANCH   8  13
ATOM     13  C   UNL     1      92.736 -13.390  23.036  1.00  0.00     0.043 A 
ATOM     14  Cl  UNL     1      88.701 -14.732  24.552  1.00  0.00    -0.084 Cl
ATOM     15  C   UNL     1      90.233 -14.209  23.954  1.00  0.00     0.053 A 
ATOM     16  C   UNL     1      90.347 -13.564  22.722  1.00  0.00     0.076 A 
ATOM     17  C   UNL     1      91.369 -14.445  24.726  1.00  0.00     0.023 A 
ATOM     18  C   UNL     1      91.599 -13.154  22.264  1.00  0.00     0.040 A 
ATOM     19  C   UNL     1      92.622 -14.035  24.268  1.00  0.00     0.028 A 
BRANCH  16  20
ATOM     20  C   UNL     1      89.154 -13.294  21.864  1.00  0.00     0.417 C 
ATOM     21  F   UNL     1      88.670 -14.405  21.239  1.00  0.00    -0.166 F 
ATOM     22  F   UNL     1      88.094 -12.778  22.552  1.00  0.00    -0.166 F 
ATOM     23  F   UNL     1      89.418 -12.397  20.870  1.00  0.00    -0.166 F 
ENDBRANCH  16  20
ENDBRANCH   8  13
ENDBRANCH   1   7
BRANCH   2  24
ATOM     24  O   UNL     1     100.986  -9.767  23.735  1.00  0.00    -0.457 OA
BRANCH  24  25
ATOM     25  C   UNL     1     101.110  -8.402  23.543  1.00  0.00     0.131 A 
ATOM     26  C   UNL     1     101.132  -7.566  24.639  1.00  0.00     0.081 A 
ATOM     27  C   UNL     1     101.211  -7.908  22.259  1.00  0.00     0.067 A 
ATOM     28  C   UNL     1     101.260  -6.208  24.393  1.00  0.00     0.131 A 
ATOM     29  C   UNL     1     101.336  -6.535  22.120  1.00  0.00     0.116 A 
ATOM     30  N   UNL     1     101.363  -5.669  23.158  1.00  0.00    -0.251 NA
BRANCH  28  31
ATOM     31  C   UNL     1     101.291  -5.265  25.497  1.00  0.00     0.269 C 
ATOM     32  O   UNL     1     101.776  -4.128  25.347  1.00  0.00    -0.268 OA
ATOM     33  N   UNL     1     100.735  -5.687  26.711  1.00  0.00    -0.354 N 
ATOM     34  C   UNL     1     100.668  -4.858  27.893  1.00  0.00     0.143 C 
ATOM     35  H   UNL     1     100.325  -6.616  26.764  1.00  0.00     0.163 HD
ENDBRANCH  28  31
ENDBRANCH  24  25
ENDBRANCH   2  24
TORSDOF 6
ENDMDL
MODEL 11
REMARK VINA RESULT:    -6.448      6.065     11.795
REMARK INTER + INTRA:          -9.777
REMARK INTER:                  -8.817
REMARK INTRA:                  -0.960
REMARK UNBOUND:                -1.067
REMARK SMILES CNC(=O)c1cc(Oc2ccc(NC(=O)Nc3ccc(Cl)c(C(F)(F)F)c3)cc2)ccn1
REMARK SMILES IDX 12 1 9 2 11 3 28 4 10 5 29 6 13 7 16 8 14 9 15 11 17 13
REMARK SMILES IDX 21 14 20 15 22 16 19 17 27 18 18 19 23 20 24 21 25 22 26 23
REMARK SMILES IDX 8 24 7 25 6 26 30 27 5 28 31 29 32 30 3 31 4 32 2 33 1 34
REMARK H PARENT 16 10 13 12 2 35
REMARK Flexibility Score: inf
ROOT
ATOM      1  C   UNL     1      96.623 -10.922  22.970  1.00  0.00     0.043 A 
ATOM      2  C   UNL     1      95.012 -13.147  23.317  1.00  0.00     0.127 A 
ATOM      3  C   UNL     1      96.368 -11.748  21.889  1.00  0.00     0.030 A 
ATOM      4  C   UNL     1      96.089 -11.183  24.221  1.00  0.00     0.030 A 
ATOM      5  C   UNL     1      95.556 -12.870  22.063  1.00  0.00     0.049 A 
ATOM      6  C   UNL     1      95.278 -12.304  24.396  1.00  0.00     0.049 A 
ENDROOT
BRANCH   1   7
ATOM      7  N   UNL     1      97.447  -9.785  22.793  1.00  0.00    -0.308 N 
ATOM      8  N   UNL     1      99.242  -8.330  22.808  1.00  0.00    -0.308 N 
ATOM      9  C   UNL     1      98.790  -9.622  23.171  1.00  0.00     0.323 C 
ATOM     10  H   UNL     1      98.558  -7.733  22.349  1.00  0.00     0.171 HD
ATOM     11  O   UNL     1      99.476 -10.470  23.732  1.00  0.00    -0.248 OA
ATOM     12  H   UNL     1      97.004  -8.992  22.334  1.00  0.00     0.171 HD
BRANCH   8  13
ATOM     13  C   UNL     1     100.502  -7.763  23.000  1.00  0.00     0.043 A 
ATOM     14  Cl  UNL     1     104.593  -5.946  23.588  1.00  0.00    -0.084 Cl
ATOM     15  C   UNL     1     103.021  -6.629  23.383  1.00  0.00     0.053 A 
ATOM     16  C   UNL     1     101.991  -6.360  24.284  1.00  0.00     0.076 A 
ATOM     17  C   UNL     1     102.791  -7.464  22.290  1.00  0.00     0.023 A 
ATOM     18  C   UNL     1     100.731  -6.927  24.093  1.00  0.00     0.040 A 
ATOM     19  C   UNL     1     101.531  -8.031  22.098  1.00  0.00     0.028 A 
BRANCH  16  20
ATOM     20  C   UNL     1     102.197  -5.471  25.469  1.00  0.00     0.417 C 
ATOM     21  F   UNL     1     102.686  -4.239  25.147  1.00  0.00    -0.166 F 
ATOM     22  F   UNL     1     101.053  -5.231  26.173  1.00  0.00    -0.166 F 
ATOM     23  F   UNL     1     103.080  -5.996  26.367  1.00  0.00    -0.166 F 
ENDBRANCH  16  20
ENDBRANCH   8  13
ENDBRANCH   1   7
BRANCH   2  24
ATOM     24  O   UNL     1      94.220 -14.242  23.487  1.00  0.00    -0.457 OA
BRANCH  24  25
ATOM     25  C   UNL     1      92.852 -14.042  23.554  1.00  0.00     0.131 A 
ATOM     26  C   UNL     1      92.151 -14.531  24.636  1.00  0.00     0.081 A 
ATOM     27  C   UNL     1      92.221 -13.358  22.537  1.00  0.00     0.067 A 
ATOM     28  C   UNL     1      90.784 -14.303  24.656  1.00  0.00     0.131 A 
ATOM     29  C   UNL     1      90.851 -13.183  22.651  1.00  0.00     0.116 A 
ATOM     30  N   UNL     1      90.114 -13.640  23.689  1.00  0.00    -0.251 NA
BRANCH  28  31
ATOM     31  C   UNL     1      89.979 -14.788  25.763  1.00  0.00     0.269 C 
ATOM     32  O   UNL     1      88.910 -14.225  26.063  1.00  0.00    -0.268 OA
ATOM     33  N   UNL     1      90.449 -15.916  26.447  1.00  0.00    -0.354 N 
ATOM     34  C   UNL     1      89.751 -16.530  27.553  1.00  0.00     0.143 C 
ATOM     35  H   UNL     1      91.313 -16.351  26.136  1.00  0.00     0.163 HD
ENDBRANCH  28  31
ENDBRANCH  24  25
ENDBRANCH   2  24
TORSDOF 6
ENDMDL
MODEL 12
REMARK VINA RESULT:    -6.447     19.307     22.400
REMARK INTER + INTRA:          -9.776
REMARK INTER:                  -9.130
REMARK INTRA:                  -0.646
REMARK UNBOUND:                -1.067
REMARK SMILES CNC(=O)c1cc(Oc2ccc(NC(=O)Nc3ccc(Cl)c(C(F)(F)F)c3)cc2)ccn1
REMARK SMILES IDX 12 1 9 2 11 3 28 4 10 5 29 6 13 7 16 8 14 9 15 11 17 13
REMARK SMILES IDX 21 14 20 15 22 16 19 17 27 18 18 19 23 20 24 21 25 22 26 23
REMARK SMILES IDX 8 24 7 25 6 26 30 27 5 28 31 29 32 30 3 31 4 32 2 33 1 34
REMARK H PARENT 16 10 13 12 2 35
REMARK Flexibility Score: inf
ROOT
ATOM      1  C   UNL     1      96.295  10.803  20.647  1.00  0.00     0.043 A 
ATOM      2  C   UNL     1      97.649  12.182  18.664  1.00  0.00     0.127 A 
ATOM      3  C   UNL     1      97.071  10.099  19.742  1.00  0.00     0.030 A 
ATOM      4  C   UNL     1      96.182  12.181  20.583  1.00  0.00     0.030 A 
ATOM      5  C   UNL     1      97.753  10.793  18.743  1.00  0.00     0.049 A 
ATOM      6  C   UNL     1      96.863  12.876  19.584  1.00  0.00     0.049 A 
ENDROOT
BRANCH   1   7
ATOM      7  N   UNL     1      95.603  10.098  21.661  1.00  0.00    -0.308 N 
ATOM      8  N   UNL     1      94.004   8.909  22.830  1.00  0.00    -0.308 N 
ATOM      9  C   UNL     1      94.322   9.525  21.595  1.00  0.00     0.323 C 
ATOM     10  H   UNL     1      94.716   8.970  23.553  1.00  0.00     0.171 HD
ATOM     11  O   UNL     1      93.584   9.550  20.616  1.00  0.00    -0.248 OA
ATOM     12  H   UNL     1      96.102   9.998  22.542  1.00  0.00     0.171 HD
BRANCH   8  13
ATOM     13  C   UNL     1      92.839   8.231  23.189  1.00  0.00     0.043 A 
ATOM     14  Cl  UNL     1      89.068   6.020  24.317  1.00  0.00    -0.084 Cl
ATOM     15  C   UNL     1      90.510   6.874  23.908  1.00  0.00     0.053 A 
ATOM     16  C   UNL     1      91.116   7.747  24.812  1.00  0.00     0.076 A 
ATOM     17  C   UNL     1      91.068   6.680  22.645  1.00  0.00     0.023 A 
ATOM     18  C   UNL     1      92.280   8.425  24.453  1.00  0.00     0.040 A 
ATOM     19  C   UNL     1      92.233   7.359  22.285  1.00  0.00     0.028 A 
BRANCH  16  20
ATOM     20  C   UNL     1      90.548   7.984  26.175  1.00  0.00     0.417 C 
ATOM     21  F   UNL     1      90.177   6.839  26.816  1.00  0.00    -0.166 F 
ATOM     22  F   UNL     1      91.416   8.606  27.024  1.00  0.00    -0.166 F 
ATOM     23  F   UNL     1      89.433   8.769  26.146  1.00  0.00    -0.166 F 
ENDBRANCH  16  20
ENDBRANCH   8  13
ENDBRANCH   1   7
BRANCH   2  24
ATOM     24  O   UNL     1      98.314  12.859  17.688  1.00  0.00    -0.457 OA
BRANCH  24  25
ATOM     25  C   UNL     1      97.667  13.046  16.479  1.00  0.00     0.131 A 
ATOM     26  C   UNL     1      96.856  14.148  16.311  1.00  0.00     0.081 A 
ATOM     27  C   UNL     1      97.851  12.127  15.467  1.00  0.00     0.067 A 
ATOM     28  C   UNL     1      96.233  14.290  15.081  1.00  0.00     0.131 A 
ATOM     29  C   UNL     1      97.183  12.359  14.276  1.00  0.00     0.116 A 
ATOM     30  N   UNL     1      96.376  13.421  14.056  1.00  0.00    -0.251 NA
BRANCH  28  31
ATOM     31  C   UNL     1      95.363  15.425  14.830  1.00  0.00     0.269 C 
ATOM     32  O   UNL     1      94.568  15.415  13.872  1.00  0.00    -0.268 OA
ATOM     33  N   UNL     1      95.448  16.503  15.720  1.00  0.00    -0.354 N 
ATOM     34  C   UNL     1      94.634  17.692  15.618  1.00  0.00     0.143 C 
ATOM     35  H   UNL     1      96.095  16.440  16.502  1.00  0.00     0.163 HD
ENDBRANCH  28  31
ENDBRANCH  24  25
ENDBRANCH   2  24
TORSDOF 6
ENDMDL
MODEL 13
REMARK VINA RESULT:    -6.440      5.951     11.414
REMARK INTER + INTRA:          -9.766
REMARK INTER:                  -9.102
REMARK INTRA:                  -0.664
REMARK UNBOUND:                -1.067
REMARK SMILES CNC(=O)c1cc(Oc2ccc(NC(=O)Nc3ccc(Cl)c(C(F)(F)F)c3)cc2)ccn1
REMARK SMILES IDX 12 1 9 2 11 3 28 4 10 5 29 6 13 7 16 8 14 9 15 11 17 13
REMARK SMILES IDX 21 14 20 15 22 16 19 17 27 18 18 19 23 20 24 21 25 22 26 23
REMARK SMILES IDX 8 24 7 25 6 26 30 27 5 28 31 29 32 30 3 31 4 32 2 33 1 34
REMARK H PARENT 16 10 13 12 2 35
REMARK Flexibility Score: inf
ROOT
ATOM      1  C   UNL     1      96.710 -12.627  23.250  1.00  0.00     0.043 A 
ATOM      2  C   UNL     1      94.368 -14.082  22.988  1.00  0.00     0.127 A 
ATOM      3  C   UNL     1      96.066 -13.085  24.387  1.00  0.00     0.030 A 
ATOM      4  C   UNL     1      96.209 -12.882  21.985  1.00  0.00     0.030 A 
ATOM      5  C   UNL     1      94.886 -13.818  24.256  1.00  0.00     0.049 A 
ATOM      6  C   UNL     1      95.029 -13.614  21.852  1.00  0.00     0.049 A 
ENDROOT
BRANCH   1   7
ATOM      7  N   UNL     1      97.906 -11.883  23.385  1.00  0.00    -0.308 N 
ATOM      8  N   UNL     1      99.419 -10.173  23.737  1.00  0.00    -0.308 N 
ATOM      9  C   UNL     1      98.047 -10.521  23.699  1.00  0.00     0.323 C 
ATOM     10  H   UNL     1     100.075 -10.926  23.539  1.00  0.00     0.171 HD
ATOM     11  O   UNL     1      97.123  -9.744  23.910  1.00  0.00    -0.248 OA
ATOM     12  H   UNL     1      98.765 -12.407  23.235  1.00  0.00     0.171 HD
BRANCH   8  13
ATOM     13  C   UNL     1      99.995  -8.932  24.007  1.00  0.00     0.043 A 
ATOM     14  Cl  UNL     1     101.851  -4.919  24.921  1.00  0.00    -0.084 Cl
ATOM     15  C   UNL     1     101.147  -6.450  24.549  1.00  0.00     0.053 A 
ATOM     16  C   UNL     1     101.052  -6.902  23.233  1.00  0.00     0.076 A 
ATOM     17  C   UNL     1     100.665  -7.238  25.593  1.00  0.00     0.023 A 
ATOM     18  C   UNL     1     100.477  -8.143  22.962  1.00  0.00     0.040 A 
ATOM     19  C   UNL     1     100.090  -8.479  25.323  1.00  0.00     0.028 A 
BRANCH  16  20
ATOM     20  C   UNL     1     101.555  -6.087  22.084  1.00  0.00     0.417 C 
ATOM     21  F   UNL     1     100.795  -4.984  21.826  1.00  0.00    -0.166 F 
ATOM     22  F   UNL     1     102.822  -5.616  22.266  1.00  0.00    -0.166 F 
ATOM     23  F   UNL     1     101.587  -6.794  20.918  1.00  0.00    -0.166 F 
ENDBRANCH  16  20
ENDBRANCH   8  13
ENDBRANCH   1   7
BRANCH   2  24
ATOM     24  O   UNL     1      93.217 -14.797  22.859  1.00  0.00    -0.457 OA
BRANCH  24  25
ATOM     25  C   UNL     1      92.019 -14.119  23.008  1.00  0.00     0.131 A 
ATOM     26  C   UNL     1      91.068 -14.203  22.013  1.00  0.00     0.081 A 
ATOM     27  C   UNL     1      91.802 -13.378  24.150  1.00  0.00     0.067 A 
ATOM     28  C   UNL     1      89.885 -13.508  22.212  1.00  0.00     0.131 A 
ATOM     29  C   UNL     1      90.586 -12.720  24.254  1.00  0.00     0.116 A 
ATOM     30  N   UNL     1      89.619 -12.767  23.309  1.00  0.00    -0.251 NA
BRANCH  28  31
ATOM     31  C   UNL     1      88.836 -13.548  21.208  1.00  0.00     0.269 C 
ATOM     32  O   UNL     1      88.758 -14.501  20.411  1.00  0.00    -0.268 OA
ATOM     33  N   UNL     1      87.921 -12.489  21.201  1.00  0.00    -0.354 N 
ATOM     34  C   UNL     1      86.810 -12.397  20.282  1.00  0.00     0.143 C 
ATOM     35  H   UNL     1      88.018 -11.755  21.898  1.00  0.00     0.163 HD
ENDBRANCH  28  31
ENDBRANCH  24  25
ENDBRANCH   2  24
TORSDOF 6
ENDMDL
MODEL 14
REMARK VINA RESULT:    -6.436      1.465      1.640
REMARK INTER + INTRA:          -9.761
REMARK INTER:                  -9.267
REMARK INTRA:                  -0.494
REMARK UNBOUND:                -1.067
REMARK SMILES CNC(=O)c1cc(Oc2ccc(NC(=O)Nc3ccc(Cl)c(C(F)(F)F)c3)cc2)ccn1
REMARK SMILES IDX 12 1 9 2 11 3 28 4 10 5 29 6 13 7 16 8 14 9 15 11 17 13
REMARK SMILES IDX 21 14 20 15 22 16 19 17 27 18 18 19 23 20 24 21 25 22 26 23
REMARK SMILES IDX 8 24 7 25 6 26 30 27 5 28 31 29 32 30 3 31 4 32 2 33 1 34
REMARK H PARENT 16 10 13 12 2 35
REMARK Flexibility Score: inf
ROOT
ATOM      1  C   UNL     1      97.459 -10.677  25.513  1.00  0.00     0.043 A 
ATOM      2  C   UNL     1      99.841  -9.346  25.992  1.00  0.00     0.127 A 
ATOM      3  C   UNL     1      98.653 -11.373  25.427  1.00  0.00     0.030 A 
ATOM      4  C   UNL     1      97.430  -9.330  25.834  1.00  0.00     0.030 A 
ATOM      5  C   UNL     1      99.853 -10.703  25.668  1.00  0.00     0.049 A 
ATOM      6  C   UNL     1      98.630  -8.659  26.075  1.00  0.00     0.049 A 
ENDROOT
BRANCH   1   7
ATOM      7  N   UNL     1      96.243 -11.357  25.269  1.00  0.00    -0.308 N 
ATOM      8  N   UNL     1      94.557 -12.585  24.275  1.00  0.00    -0.308 N 
ATOM      9  C   UNL     1      95.855 -12.044  24.107  1.00  0.00     0.323 C 
ATOM     10  H   UNL     1      94.113 -12.404  25.172  1.00  0.00     0.171 HD
ATOM     11  O   UNL     1      96.535 -12.163  23.093  1.00  0.00    -0.248 OA
ATOM     12  H   UNL     1      95.572 -11.341  26.033  1.00  0.00     0.171 HD
BRANCH   8  13
ATOM     13  C   UNL     1      93.802 -13.332  23.371  1.00  0.00     0.043 A 
ATOM     14  Cl  UNL     1      91.391 -15.768  20.432  1.00  0.00    -0.084 Cl
ATOM     15  C   UNL     1      92.292 -14.828  21.565  1.00  0.00     0.053 A 
ATOM     16  C   UNL     1      91.659 -13.948  22.442  1.00  0.00     0.076 A 
ATOM     17  C   UNL     1      93.680 -14.960  21.590  1.00  0.00     0.023 A 
ATOM     18  C   UNL     1      92.413 -13.201  23.346  1.00  0.00     0.040 A 
ATOM     19  C   UNL     1      94.435 -14.212  22.494  1.00  0.00     0.028 A 
BRANCH  16  20
ATOM     20  C   UNL     1      90.173 -13.777  22.446  1.00  0.00     0.417 C 
ATOM     21  F   UNL     1      89.730 -12.884  23.377  1.00  0.00    -0.166 F 
ATOM     22  F   UNL     1      89.675 -13.332  21.256  1.00  0.00    -0.166 F 
ATOM     23  F   UNL     1      89.514 -14.943  22.709  1.00  0.00    -0.166 F 
ENDBRANCH  16  20
ENDBRANCH   8  13
ENDBRANCH   1   7
BRANCH   2  24
ATOM     24  O   UNL     1     101.012  -8.693  26.226  1.00  0.00    -0.457 OA
BRANCH  24  25
ATOM     25  C   UNL     1     101.166  -7.432  25.676  1.00  0.00     0.131 A 
ATOM     26  C   UNL     1     101.249  -7.299  24.306  1.00  0.00     0.081 A 
ATOM     27  C   UNL     1     101.233  -6.336  26.509  1.00  0.00     0.067 A 
ATOM     28  C   UNL     1     101.401  -6.017  23.805  1.00  0.00     0.131 A 
ATOM     29  C   UNL     1     101.386  -5.096  25.910  1.00  0.00     0.116 A 
ATOM     30  N   UNL     1     101.472  -4.908  24.574  1.00  0.00    -0.251 NA
BRANCH  28  31
ATOM     31  C   UNL     1     101.495  -5.798  22.372  1.00  0.00     0.269 C 
ATOM     32  O   UNL     1     101.082  -4.739  21.864  1.00  0.00    -0.268 OA
ATOM     33  N   UNL     1     102.086  -6.813  21.610  1.00  0.00    -0.354 N 
ATOM     34  C   UNL     1     102.273  -6.735  20.179  1.00  0.00     0.143 C 
ATOM     35  H   UNL     1     102.433  -7.642  22.086  1.00  0.00     0.163 HD
ENDBRANCH  28  31
ENDBRANCH  24  25
ENDBRANCH   2  24
TORSDOF 6
ENDMDL
MODEL 15
REMARK VINA RESULT:    -6.375     20.178     23.491
REMARK INTER + INTRA:          -9.679
REMARK INTER:                  -8.748
REMARK INTRA:                  -0.930
REMARK UNBOUND:                -1.067
REMARK SMILES CNC(=O)c1cc(Oc2ccc(NC(=O)Nc3ccc(Cl)c(C(F)(F)F)c3)cc2)ccn1
REMARK SMILES IDX 12 1 9 2 11 3 28 4 10 5 29 6 13 7 16 8 14 9 15 11 17 13
REMARK SMILES IDX 21 14 20 15 22 16 19 17 27 18 18 19 23 20 24 21 25 22 26 23
REMARK SMILES IDX 8 24 7 25 6 26 30 27 5 28 31 29 32 30 3 31 4 32 2 33 1 34
REMARK H PARENT 16 10 13 12 2 35
REMARK Flexibility Score: inf
ROOT
ATOM      1  C   UNL     1      92.980   6.080  15.789  1.00  0.00     0.043 A 
ATOM      2  C   UNL     1      91.184   4.584  14.304  1.00  0.00     0.127 A 
ATOM      3  C   UNL     1      92.207   5.123  16.425  1.00  0.00     0.030 A 
ATOM      4  C   UNL     1      92.875   6.304  14.427  1.00  0.00     0.030 A 
ATOM      5  C   UNL     1      91.302   4.369  15.677  1.00  0.00     0.049 A 
ATOM      6  C   UNL     1      91.970   5.552  13.678  1.00  0.00     0.049 A 
ENDROOT
BRANCH   1   7
ATOM      7  N   UNL     1      93.898   6.844  16.548  1.00  0.00    -0.308 N 
ATOM      8  N   UNL     1      94.943   8.577  17.663  1.00  0.00    -0.308 N 
ATOM      9  C   UNL     1      93.815   8.204  16.891  1.00  0.00     0.323 C 
ATOM     10  H   UNL     1      95.620   7.841  17.847  1.00  0.00     0.171 HD
ATOM     11  O   UNL     1      92.904   8.960  16.574  1.00  0.00    -0.248 OA
ATOM     12  H   UNL     1      94.715   6.339  16.883  1.00  0.00     0.171 HD
BRANCH   8  13
ATOM     13  C   UNL     1      95.252   9.825  18.203  1.00  0.00     0.043 A 
ATOM     14  Cl  UNL     1      96.247  13.851  19.990  1.00  0.00    -0.084 Cl
ATOM     15  C   UNL     1      95.872  12.321  19.285  1.00  0.00     0.053 A 
ATOM     16  C   UNL     1      95.917  12.129  17.904  1.00  0.00     0.076 A 
ATOM     17  C   UNL     1      95.518  11.265  20.125  1.00  0.00     0.023 A 
ATOM     18  C   UNL     1      95.607  10.881  17.363  1.00  0.00     0.040 A 
ATOM     19  C   UNL     1      95.208  10.017  19.584  1.00  0.00     0.028 A 
BRANCH  16  20
ATOM     20  C   UNL     1      96.290  13.235  16.970  1.00  0.00     0.417 C 
ATOM     21  F   UNL     1      96.290  12.862  15.658  1.00  0.00    -0.166 F 
ATOM     22  F   UNL     1      95.453  14.310  17.038  1.00  0.00    -0.166 F 
ATOM     23  F   UNL     1      97.540  13.724  17.214  1.00  0.00    -0.166 F 
ENDBRANCH  16  20
ENDBRANCH   8  13
ENDBRANCH   1   7
BRANCH   2  24
ATOM     24  O   UNL     1      90.300   3.849  13.575  1.00  0.00    -0.457 OA
BRANCH  24  25
ATOM     25  C   UNL     1      89.311   4.530  12.886  1.00  0.00     0.131 A 
ATOM     26  C   UNL     1      89.456   4.742  11.532  1.00  0.00     0.081 A 
ATOM     27  C   UNL     1      88.201   4.979  13.570  1.00  0.00     0.067 A 
ATOM     28  C   UNL     1      88.437   5.427  10.889  1.00  0.00     0.131 A 
ATOM     29  C   UNL     1      87.238   5.653  12.836  1.00  0.00     0.116 A 
ATOM     30  N   UNL     1      87.328   5.890  11.507  1.00  0.00    -0.251 NA
BRANCH  28  31
ATOM     31  C   UNL     1      88.519   5.689   9.462  1.00  0.00     0.269 C 
ATOM     32  O   UNL     1      89.595   5.549   8.853  1.00  0.00    -0.268 OA
ATOM     33  N   UNL     1      87.338   6.078   8.818  1.00  0.00    -0.354 N 
ATOM     34  C   UNL     1      87.252   6.350   7.401  1.00  0.00     0.143 C 
ATOM     35  H   UNL     1      86.483   6.145   9.363  1.00  0.00     0.163 HD
ENDBRANCH  28  31
ENDBRANCH  24  25
ENDBRANCH   2  24
TORSDOF 6
ENDMDL
MODEL 16
REMARK VINA RESULT:    -6.286     18.158     19.188
REMARK INTER + INTRA:          -9.558
REMARK INTER:                  -8.696
REMARK INTRA:                  -0.862
REMARK UNBOUND:                -1.067
REMARK SMILES CNC(=O)c1cc(Oc2ccc(NC(=O)Nc3ccc(Cl)c(C(F)(F)F)c3)cc2)ccn1
REMARK SMILES IDX 12 1 9 2 11 3 28 4 10 5 29 6 13 7 16 8 14 9 15 11 17 13
REMARK SMILES IDX 21 14 20 15 22 16 19 17 27 18 18 19 23 20 24 21 25 22 26 23
REMARK SMILES IDX 8 24 7 25 6 26 30 27 5 28 31 29 32 30 3 31 4 32 2 33 1 34
REMARK H PARENT 16 10 13 12 2 35
REMARK Flexibility Score: inf
ROOT
ATOM      1  C   UNL     1      97.262   9.596  23.443  1.00  0.00     0.043 A 
ATOM      2  C   UNL     1      99.977   9.860  23.921  1.00  0.00     0.127 A 
ATOM      3  C   UNL     1      98.131   8.632  22.962  1.00  0.00     0.030 A 
ATOM      4  C   UNL     1      97.721  10.689  24.160  1.00  0.00     0.030 A 
ATOM      5  C   UNL     1      99.499   8.765  23.202  1.00  0.00     0.049 A 
ATOM      6  C   UNL     1      99.088  10.822  24.401  1.00  0.00     0.049 A 
ENDROOT
BRANCH   1   7
ATOM      7  N   UNL     1      95.875   9.461  23.199  1.00  0.00    -0.308 N 
ATOM      8  N   UNL     1      93.671   8.771  23.284  1.00  0.00    -0.308 N 
ATOM      9  C   UNL     1      94.969   8.585  23.821  1.00  0.00     0.323 C 
ATOM     10  H   UNL     1      93.588   9.478  22.558  1.00  0.00     0.171 HD
ATOM     11  O   UNL     1      95.252   7.778  24.699  1.00  0.00    -0.248 OA
ATOM     12  H   UNL     1      95.495  10.076  22.484  1.00  0.00     0.171 HD
BRANCH   8  13
ATOM     13  C   UNL     1      92.489   8.110  23.617  1.00  0.00     0.043 A 
ATOM     14  Cl  UNL     1      88.661   5.954  24.658  1.00  0.00    -0.084 Cl
ATOM     15  C   UNL     1      90.126   6.786  24.283  1.00  0.00     0.053 A 
ATOM     16  C   UNL     1      90.757   7.600  25.223  1.00  0.00     0.076 A 
ATOM     17  C   UNL     1      90.675   6.635  23.010  1.00  0.00     0.023 A 
ATOM     18  C   UNL     1      91.939   8.261  24.891  1.00  0.00     0.040 A 
ATOM     19  C   UNL     1      91.857   7.296  22.677  1.00  0.00     0.028 A 
BRANCH  16  20
ATOM     20  C   UNL     1      90.200   7.791  26.597  1.00  0.00     0.417 C 
ATOM     21  F   UNL     1      89.827   6.625  27.200  1.00  0.00    -0.166 F 
ATOM     22  F   UNL     1      91.076   8.378  27.462  1.00  0.00    -0.166 F 
ATOM     23  F   UNL     1      89.088   8.582  26.604  1.00  0.00    -0.166 F 
ENDBRANCH  16  20
ENDBRANCH   8  13
ENDBRANCH   1   7
BRANCH   2  24
ATOM     24  O   UNL     1     101.312   9.990  24.156  1.00  0.00    -0.457 OA
BRANCH  24  25
ATOM     25  C   UNL     1     101.951   8.961  24.826  1.00  0.00     0.131 A 
ATOM     26  C   UNL     1     103.054   8.365  24.252  1.00  0.00     0.081 A 
ATOM     27  C   UNL     1     101.472   8.556  26.054  1.00  0.00     0.067 A 
ATOM     28  C   UNL     1     103.658   7.341  24.964  1.00  0.00     0.131 A 
ATOM     29  C   UNL     1     102.147   7.524  26.685  1.00  0.00     0.116 A 
ATOM     30  N   UNL     1     103.232   6.904  26.170  1.00  0.00    -0.251 NA
BRANCH  28  31
ATOM     31  C   UNL     1     104.825   6.665  24.424  1.00  0.00     0.269 C 
ATOM     32  O   UNL     1     104.922   6.446  23.202  1.00  0.00    -0.268 OA
ATOM     33  N   UNL     1     105.826   6.300  25.332  1.00  0.00    -0.354 N 
ATOM     34  C   UNL     1     107.055   5.643  24.948  1.00  0.00     0.143 C 
ATOM     35  H   UNL     1     105.704   6.533  26.314  1.00  0.00     0.163 HD
ENDBRANCH  28  31
ENDBRANCH  24  25
ENDBRANCH   2  24
TORSDOF 6
ENDMDL
MODEL 17
REMARK VINA RESULT:    -6.271      1.919      2.325
REMARK INTER + INTRA:          -9.537
REMARK INTER:                  -8.643
REMARK INTRA:                  -0.894
REMARK UNBOUND:                -1.067
REMARK SMILES CNC(=O)c1cc(Oc2ccc(NC(=O)Nc3ccc(Cl)c(C(F)(F)F)c3)cc2)ccn1
REMARK SMILES IDX 12 1 9 2 11 3 28 4 10 5 29 6 13 7 16 8 14 9 15 11 17 13
REMARK SMILES IDX 21 14 20 15 22 16 19 17 27 18 18 19 23 20 24 21 25 22 26 23
REMARK SMILES IDX 8 24 7 25 6 26 30 27 5 28 31 29 32 30 3 31 4 32 2 33 1 34
REMARK H PARENT 16 10 13 12 2 35
REMARK Flexibility Score: inf
ROOT
ATOM      1  C   UNL     1      96.784 -11.274  23.587  1.00  0.00     0.043 A 
ATOM      2  C   UNL     1      99.426 -10.565  23.155  1.00  0.00     0.127 A 
ATOM      3  C   UNL     1      97.700 -11.410  24.617  1.00  0.00     0.030 A 
ATOM      4  C   UNL     1      97.161 -10.789  22.346  1.00  0.00     0.030 A 
ATOM      5  C   UNL     1      99.031 -11.053  24.400  1.00  0.00     0.049 A 
ATOM      6  C   UNL     1      98.492 -10.433  22.127  1.00  0.00     0.049 A 
ENDROOT
BRANCH   1   7
ATOM      7  N   UNL     1      95.435 -11.636  23.808  1.00  0.00    -0.308 N 
ATOM      8  N   UNL     1      93.400 -12.728  23.747  1.00  0.00    -0.308 N 
ATOM      9  C   UNL     1      94.733 -12.727  23.269  1.00  0.00     0.323 C 
ATOM     10  H   UNL     1      93.154 -11.973  24.383  1.00  0.00     0.171 HD
ATOM     11  O   UNL     1      95.199 -13.558  22.497  1.00  0.00    -0.248 OA
ATOM     12  H   UNL     1      94.916 -11.027  24.437  1.00  0.00     0.171 HD
BRANCH   8  13
ATOM     13  C   UNL     1      92.373 -13.629  23.461  1.00  0.00     0.043 A 
ATOM     14  Cl  UNL     1      89.070 -16.571  22.555  1.00  0.00    -0.084 Cl
ATOM     15  C   UNL     1      90.321 -15.429  22.889  1.00  0.00     0.053 A 
ATOM     16  C   UNL     1      90.284 -14.139  22.361  1.00  0.00     0.076 A 
ATOM     17  C   UNL     1      91.384 -15.819  23.702  1.00  0.00     0.023 A 
ATOM     18  C   UNL     1      91.310 -13.238  22.647  1.00  0.00     0.040 A 
ATOM     19  C   UNL     1      92.411 -14.919  23.989  1.00  0.00     0.028 A 
BRANCH  16  20
ATOM     20  C   UNL     1      89.163 -13.682  21.483  1.00  0.00     0.417 C 
ATOM     21  F   UNL     1      87.956 -13.643  22.117  1.00  0.00    -0.166 F 
ATOM     22  F   UNL     1      89.345 -12.427  20.978  1.00  0.00    -0.166 F 
ATOM     23  F   UNL     1      88.985 -14.493  20.400  1.00  0.00    -0.166 F 
ENDBRANCH  16  20
ENDBRANCH   8  13
ENDBRANCH   1   7
BRANCH   2  24
ATOM     24  O   UNL     1     100.725 -10.217  22.942  1.00  0.00    -0.457 OA
BRANCH  24  25
ATOM     25  C   UNL     1     100.989  -8.910  22.571  1.00  0.00     0.131 A 
ATOM     26  C   UNL     1     101.766  -8.669  21.457  1.00  0.00     0.081 A 
ATOM     27  C   UNL     1     100.467  -7.877  23.321  1.00  0.00     0.067 A 
ATOM     28  C   UNL     1     101.999  -7.343  21.127  1.00  0.00     0.131 A 
ATOM     29  C   UNL     1     100.758  -6.587  22.907  1.00  0.00     0.116 A 
ATOM     30  N   UNL     1     101.514  -6.293  21.825  1.00  0.00    -0.251 NA
BRANCH  28  31
ATOM     31  C   UNL     1     102.808  -7.010  19.967  1.00  0.00     0.269 C 
ATOM     32  O   UNL     1     104.009  -7.335  19.918  1.00  0.00    -0.268 OA
ATOM     33  N   UNL     1     102.171  -6.338  18.918  1.00  0.00    -0.354 N 
ATOM     34  C   UNL     1     102.833  -5.959  17.690  1.00  0.00     0.143 C 
ATOM     35  H   UNL     1     101.180  -6.127  19.003  1.00  0.00     0.163 HD
ENDBRANCH  28  31
ENDBRANCH  24  25
ENDBRANCH   2  24
TORSDOF 6
ENDMDL
MODEL 18
REMARK VINA RESULT:    -6.204      1.652      2.190
REMARK INTER + INTRA:          -9.448
REMARK INTER:                  -8.552
REMARK INTRA:                  -0.896
REMARK UNBOUND:                -1.067
REMARK SMILES CNC(=O)c1cc(Oc2ccc(NC(=O)Nc3ccc(Cl)c(C(F)(F)F)c3)cc2)ccn1
REMARK SMILES IDX 12 1 9 2 11 3 28 4 10 5 29 6 13 7 16 8 14 9 15 11 17 13
REMARK SMILES IDX 21 14 20 15 22 16 19 17 27 18 18 19 23 20 24 21 25 22 26 23
REMARK SMILES IDX 8 24 7 25 6 26 30 27 5 28 31 29 32 30 3 31 4 32 2 33 1 34
REMARK H PARENT 16 10 13 12 2 35
REMARK Flexibility Score: inf
ROOT
ATOM      1  C   UNL     1      97.277 -10.745  23.107  1.00  0.00     0.043 A 
ATOM      2  C   UNL     1      99.615  -9.486  23.895  1.00  0.00     0.127 A 
ATOM      3  C   UNL     1      97.205  -9.652  23.955  1.00  0.00     0.030 A 
ATOM      4  C   UNL     1      98.492 -11.221  22.644  1.00  0.00     0.030 A 
ATOM      5  C   UNL     1      98.383  -9.017  24.352  1.00  0.00     0.049 A 
ATOM      6  C   UNL     1      99.670 -10.588  23.041  1.00  0.00     0.049 A 
ENDROOT
BRANCH   1   7
ATOM      7  N   UNL     1      96.082 -11.387  22.705  1.00  0.00    -0.308 N 
ATOM      8  N   UNL     1      94.177 -12.694  22.672  1.00  0.00    -0.308 N 
ATOM      9  C   UNL     1      95.290 -12.281  23.444  1.00  0.00     0.323 C 
ATOM     10  H   UNL     1      94.116 -12.302  21.735  1.00  0.00     0.171 HD
ATOM     11  O   UNL     1      95.522 -12.653  24.590  1.00  0.00    -0.248 OA
ATOM     12  H   UNL     1      95.765 -11.170  21.763  1.00  0.00     0.171 HD
BRANCH   8  13
ATOM     13  C   UNL     1      93.151 -13.571  23.023  1.00  0.00     0.043 A 
ATOM     14  Cl  UNL     1      89.851 -16.440  24.147  1.00  0.00    -0.084 Cl
ATOM     15  C   UNL     1      91.100 -15.325  23.727  1.00  0.00     0.053 A 
ATOM     16  C   UNL     1      90.955 -13.956  23.953  1.00  0.00     0.076 A 
ATOM     17  C   UNL     1      92.270 -15.816  23.149  1.00  0.00     0.023 A 
ATOM     18  C   UNL     1      91.980 -13.079  23.602  1.00  0.00     0.040 A 
ATOM     19  C   UNL     1      93.296 -14.939  22.797  1.00  0.00     0.028 A 
BRANCH  16  20
ATOM     20  C   UNL     1      89.715 -13.389  24.568  1.00  0.00     0.417 C 
ATOM     21  F   UNL     1      88.588 -13.623  23.837  1.00  0.00    -0.166 F 
ATOM     22  F   UNL     1      89.448 -13.888  25.810  1.00  0.00    -0.166 F 
ATOM     23  F   UNL     1      89.782 -12.035  24.722  1.00  0.00    -0.166 F 
ENDBRANCH  16  20
ENDBRANCH   8  13
ENDBRANCH   1   7
BRANCH   2  24
ATOM     24  O   UNL     1     100.764  -8.868  24.283  1.00  0.00    -0.457 OA
BRANCH  24  25
ATOM     25  C   UNL     1     101.287  -7.898  23.446  1.00  0.00     0.131 A 
ATOM     26  C   UNL     1     102.592  -8.013  23.014  1.00  0.00     0.081 A 
ATOM     27  C   UNL     1     100.492  -6.839  23.060  1.00  0.00     0.067 A 
ATOM     28  C   UNL     1     103.068  -7.017  22.175  1.00  0.00     0.131 A 
ATOM     29  C   UNL     1     101.062  -5.896  22.220  1.00  0.00     0.116 A 
ATOM     30  N   UNL     1     102.334  -5.959  21.766  1.00  0.00    -0.251 NA
BRANCH  28  31
ATOM     31  C   UNL     1     104.432  -7.069  21.679  1.00  0.00     0.269 C 
ATOM     32  O   UNL     1     105.033  -8.156  21.592  1.00  0.00    -0.268 OA
ATOM     33  N   UNL     1     105.014  -5.857  21.289  1.00  0.00    -0.354 N 
ATOM     34  C   UNL     1     106.352  -5.748  20.754  1.00  0.00     0.143 C 
ATOM     35  H   UNL     1     104.462  -5.006  21.355  1.00  0.00     0.163 HD
ENDBRANCH  28  31
ENDBRANCH  24  25
ENDBRANCH   2  24
TORSDOF 6
ENDMDL
MODEL 19
REMARK VINA RESULT:    -6.197     20.420     23.444
REMARK INTER + INTRA:          -9.439
REMARK INTER:                  -8.371
REMARK INTRA:                  -1.067
REMARK UNBOUND:                -1.067
REMARK SMILES CNC(=O)c1cc(Oc2ccc(NC(=O)Nc3ccc(Cl)c(C(F)(F)F)c3)cc2)ccn1
REMARK SMILES IDX 12 1 9 2 11 3 28 4 10 5 29 6 13 7 16 8 14 9 15 11 17 13
REMARK SMILES IDX 21 14 20 15 22 16 19 17 27 18 18 19 23 20 24 21 25 22 26 23
REMARK SMILES IDX 8 24 7 25 6 26 30 27 5 28 31 29 32 30 3 31 4 32 2 33 1 34
REMARK H PARENT 16 10 13 12 2 35
REMARK Flexibility Score: inf
ROOT
ATOM      1  C   UNL     1      88.115   6.044  11.684  1.00  0.00     0.043 A 
ATOM      2  C   UNL     1      86.220   4.129  11.043  1.00  0.00     0.127 A 
ATOM      3  C   UNL     1      87.855   5.768  10.353  1.00  0.00     0.030 A 
ATOM      4  C   UNL     1      87.447   5.385  12.702  1.00  0.00     0.030 A 
ATOM      5  C   UNL     1      86.901   4.803  10.029  1.00  0.00     0.049 A 
ATOM      6  C   UNL     1      86.493   4.420  12.380  1.00  0.00     0.049 A 
ENDROOT
BRANCH   1   7
ATOM      7  N   UNL     1      89.083   7.023  12.012  1.00  0.00    -0.308 N 
ATOM      8  N   UNL     1      91.067   8.077  12.552  1.00  0.00    -0.308 N 
ATOM      9  C   UNL     1      90.452   6.835  12.262  1.00  0.00     0.323 C 
ATOM     10  H   UNL     1      90.454   8.889  12.540  1.00  0.00     0.171 HD
ATOM     11  O   UNL     1      91.036   5.757  12.235  1.00  0.00    -0.248 OA
ATOM     12  H   UNL     1      88.737   7.978  12.071  1.00  0.00     0.171 HD
BRANCH   8  13
ATOM     13  C   UNL     1      92.403   8.338  12.858  1.00  0.00     0.043 A 
ATOM     14  Cl  UNL     1      96.718   9.177  13.885  1.00  0.00    -0.084 Cl
ATOM     15  C   UNL     1      95.074   8.857  13.469  1.00  0.00     0.053 A 
ATOM     16  C   UNL     1      94.650   8.858  12.140  1.00  0.00     0.076 A 
ATOM     17  C   UNL     1      94.163   8.597  14.492  1.00  0.00     0.023 A 
ATOM     18  C   UNL     1      93.314   8.598  11.834  1.00  0.00     0.040 A 
ATOM     19  C   UNL     1      92.827   8.337  14.186  1.00  0.00     0.028 A 
BRANCH  16  20
ATOM     20  C   UNL     1      95.595   9.134  11.015  1.00  0.00     0.417 C 
ATOM     21  F   UNL     1      96.626   8.244  10.938  1.00  0.00    -0.166 F 
ATOM     22  F   UNL     1      95.001   9.102   9.786  1.00  0.00    -0.166 F 
ATOM     23  F   UNL     1      96.176  10.365  11.111  1.00  0.00    -0.166 F 
ENDBRANCH  16  20
ENDBRANCH   8  13
ENDBRANCH   1   7
BRANCH   2  24
ATOM     24  O   UNL     1      85.289   3.187  10.727  1.00  0.00    -0.457 OA
BRANCH  24  25
ATOM     25  C   UNL     1      85.646   1.857  10.870  1.00  0.00     0.131 A 
ATOM     26  C   UNL     1      86.754   1.381  10.202  1.00  0.00     0.081 A 
ATOM     27  C   UNL     1      84.886   1.038  11.677  1.00  0.00     0.067 A 
ATOM     28  C   UNL     1      87.070   0.043  10.379  1.00  0.00     0.131 A 
ATOM     29  C   UNL     1      85.284  -0.284  11.788  1.00  0.00     0.116 A 
ATOM     30  N   UNL     1      86.362  -0.805  11.157  1.00  0.00    -0.251 NA
BRANCH  28  31
ATOM     31  C   UNL     1      88.223  -0.531   9.708  1.00  0.00     0.269 C 
ATOM     32  O   UNL     1      88.990   0.187   9.040  1.00  0.00    -0.268 OA
ATOM     33  N   UNL     1      88.435  -1.906   9.870  1.00  0.00    -0.354 N 
ATOM     34  C   UNL     1      89.549  -2.618   9.287  1.00  0.00     0.143 C 
ATOM     35  H   UNL     1      87.791  -2.434  10.454  1.00  0.00     0.163 HD
ENDBRANCH  28  31
ENDBRANCH  24  25
ENDBRANCH   2  24
TORSDOF 6
ENDMDL
