REMARK SMILES CNC(=O)c1cc(Oc2ccc(NC(=O)Nc3ccc(Cl)c(C(F)(F)F)c3)cc2)ccn1
REMARK SMILES IDX 12 1 9 2 11 3 28 4 10 5 29 6 13 7 16 8 14 9 15 11 17 13
REMARK SMILES IDX 21 14 20 15 22 16 19 17 27 18 18 19 23 20 24 21 25 22 26 23
REMARK SMILES IDX 8 24 7 25 6 26 30 27 5 28 31 29 32 30 3 31 4 32 2 33 1 34
REMARK H PARENT 16 10 13 12 2 35
REMARK Flexibility Score: inf
ROOT
ATOM      1  C   UNL     1      88.285   1.634   8.682  1.00  0.00     0.043 A 
ATOM      2  C   UNL     1      88.207   3.513  10.714  1.00  0.00     0.127 A 
ATOM      3  C   UNL     1      87.128   2.367   8.882  1.00  0.00     0.030 A 
ATOM      4  C   UNL     1      89.405   1.821   9.475  1.00  0.00     0.030 A 
ATOM      5  C   UNL     1      87.088   3.314   9.906  1.00  0.00     0.049 A 
ATOM      6  C   UNL     1      89.366   2.767  10.499  1.00  0.00     0.049 A 
ENDROOT
BRANCH   1   7
ATOM      7  N   UNL     1      88.324   0.674   7.643  1.00  0.00    -0.308 N 
ATOM      8  N   UNL     1      88.153  -1.291   6.440  1.00  0.00    -0.308 N 
ATOM      9  C   UNL     1      87.965  -0.682   7.705  1.00  0.00     0.323 C 
ATOM     10  H   UNL     1      88.507  -0.686   5.704  1.00  0.00     0.171 HD
ATOM     11  O   UNL     1      87.549  -1.260   8.703  1.00  0.00    -0.248 OA
ATOM     12  H   UNL     1      88.655   1.016   6.744  1.00  0.00     0.171 HD
BRANCH   8  13
ATOM     13  C   UNL     1      87.920  -2.615   6.069  1.00  0.00     0.043 A 
ATOM     14  Cl  UNL     1      87.199  -6.913   4.887  1.00  0.00    -0.084 Cl
ATOM     15  C   UNL     1      87.455  -5.264   5.327  1.00  0.00     0.053 A 
ATOM     16  C   UNL     1      86.615  -4.252   4.863  1.00  0.00     0.076 A 
ATOM     17  C   UNL     1      88.528  -4.952   6.161  1.00  0.00     0.023 A 
ATOM     18  C   UNL     1      86.847  -2.928   5.234  1.00  0.00     0.040 A 
ATOM     19  C   UNL     1      88.760  -3.627   6.533  1.00  0.00     0.028 A 
BRANCH  16  20
ATOM     20  C   UNL     1      85.455  -4.544   3.965  1.00  0.00     0.417 C 
ATOM     21  F   UNL     1      84.660  -3.460   3.732  1.00  0.00    -0.166 F 
ATOM     22  F   UNL     1      85.823  -4.993   2.730  1.00  0.00    -0.166 F 
ATOM     23  F   UNL     1      84.630  -5.504   4.475  1.00  0.00    -0.166 F 
ENDBRANCH  16  20
ENDBRANCH   8  13
ENDBRANCH   1   7
BRANCH   2  24
ATOM     24  O   UNL     1      88.168   4.437  11.714  1.00  0.00    -0.457 OA
BRANCH  24  25
ATOM     25  C   UNL     1      88.743   5.672  11.471  1.00  0.00     0.131 A 
ATOM     26  C   UNL     1      88.575   6.265  10.238  1.00  0.00     0.081 A 
ATOM     27  C   UNL     1      89.470   6.285  12.470  1.00  0.00     0.067 A 
ATOM     28  C   UNL     1      89.169   7.502  10.046  1.00  0.00     0.131 A 
ATOM     29  C   UNL     1      90.024   7.521  12.179  1.00  0.00     0.116 A 
ATOM     30  N   UNL     1      89.891   8.148  10.987  1.00  0.00    -0.251 NA
BRANCH  28  31
ATOM     31  C   UNL     1      89.035   8.188   8.773  1.00  0.00     0.269 C 
ATOM     32  O   UNL     1      88.457   7.640   7.815  1.00  0.00    -0.268 OA
ATOM     33  N   UNL     1      89.560   9.483   8.689  1.00  0.00    -0.354 N 
ATOM     34  C   UNL     1      89.486  10.302   7.501  1.00  0.00     0.143 C 
ATOM     35  H   UNL     1      89.993   9.889   9.514  1.00  0.00     0.163 HD
ENDBRANCH  28  31
ENDBRANCH  24  25
ENDBRANCH   2  24
TORSDOF 6
