MODEL 1
REMARK VINA RESULT:   -10.076      0.000      0.000
REMARK INTER + INTRA:         -16.549
REMARK INTER:                 -12.728
REMARK INTRA:                  -3.821
REMARK UNBOUND:                 5.307
REMARK SMILES CC(=O)N(C)[C@H](CO)C(=O)N[C@H](C)C(=O)NCC(=O)N(C)[C@@H]1C(=O)N[C@@H](C)C(=O)N[C@H](C(=O)O)Cc2ccc(O)c(c2)-c2cc1ccc2O
REMARK SMILES IDX 20 1 21 2 22 3 23 4 24 5 25 6 26 8 27 9 45 11 44 12 46 13
REMARK SMILES IDX 43 14 47 15 48 16 41 17 42 18 39 19 36 20 38 21 37 22 40 23
REMARK SMILES IDX 35 25 31 26 30 27 28 28 29 30 32 32 33 33 34 34 49 36 18 38
REMARK SMILES IDX 19 39 17 40 16 41 14 42 15 44 12 45 13 46 11 47 9 48 10 50
REMARK SMILES IDX 6 51 4 52 5 53 2 54 3 55 1 56 7 57 8 58
REMARK H PARENT 25 7 40 24 30 29 34 35 49 37 16 43 11 49 8 59
REMARK Flexibility Score: 80.00
ROOT
ATOM      1  N   UNL     1      -1.749  32.437  15.709  1.00  0.00    -0.328 N 
ATOM      2  C   UNL     1      -3.072  32.274  16.188  1.00  0.00     0.148 C 
ENDROOT
BRANCH   1   3
ATOM      3  C   UNL     1      -0.842  31.317  15.797  1.00  0.00     0.204 C 
BRANCH   3   4
ATOM      4  C   UNL     1       0.234  31.234  16.818  1.00  0.00     0.248 C 
ATOM      5  O   UNL     1       0.554  32.214  17.482  1.00  0.00    -0.272 OA
ATOM      6  N   UNL     1       0.839  30.108  17.066  1.00  0.00    -0.342 N 
ATOM      7  H   UNL     1       0.956  29.582  16.307  1.00  0.00     0.164 HD
BRANCH   6   8
ATOM      8  C   UNL     1       1.259  29.491  18.268  1.00  0.00     0.168 CG0
ATOM      9  C   UNL     1       0.609  28.090  18.478  1.00  0.00     0.041 C 
ATOM     10  G   UNL     1       2.730  29.425  18.333  1.00  0.00     0.000 G0
ENDBRANCH   6   8
ENDBRANCH   3   4
BRANCH   3  11
ATOM     11  C   UNL     1      -0.208  31.028  14.464  1.00  0.00    -0.015 A 
ATOM     12  C   UNL     1       1.179  31.238  14.277  1.00  0.00     0.019 A 
ATOM     13  C   UNL     1      -0.931  30.479  13.381  1.00  0.00     0.010 A 
ATOM     14  C   UNL     1       1.868  30.748  13.148  1.00  0.00     0.028 A 
ATOM     15  C   UNL     1      -0.280  30.090  12.195  1.00  0.00     0.047 A 
ATOM     16  C   UNL     1       1.121  30.198  12.082  1.00  0.00     0.123 A 
BRANCH  14  17
ATOM     17  C   UNL     1       3.281  30.720  13.253  1.00  0.00     0.027 A 
ATOM     18  C   UNL     1       3.809  30.086  14.401  1.00  0.00     0.016 A 
ATOM     19  C   UNL     1       4.164  31.398  12.381  1.00  0.00     0.123 A 
ATOM     20  C   UNL     1       5.162  30.220  14.779  1.00  0.00    -0.044 A 
ATOM     21  C   UNL     1       5.535  31.469  12.699  1.00  0.00     0.047 A 
ATOM     22  C   UNL     1       6.024  30.905  13.893  1.00  0.00     0.007 A 
BRANCH  19  23
ATOM     23  O   UNL     1       3.738  31.960  11.340  1.00  0.00    -0.507 OA
ATOM     24  H   UNL     1       2.877  31.965  11.149  1.00  0.00     0.293 HD
ENDBRANCH  19  23
BRANCH  20  25
ATOM     25  C   UNL     1       5.624  29.672  16.086  1.00  0.00     0.072 C 
BRANCH  25  26
ATOM     26  C   UNL     1       4.908  30.184  17.384  1.00  0.00     0.196 C 
BRANCH  26  27
ATOM     27  N   UNL     1       3.513  29.964  17.433  1.00  0.00    -0.341 N 
ATOM     28  C   UNL     1       2.754  29.406  18.342  1.00  0.00     0.242 CG0
ATOM     29  H   UNL     1       3.047  30.299  16.694  1.00  0.00     0.164 HD
ATOM     30  O   UNL     1       3.305  28.826  19.271  1.00  0.00    -0.273 OA
ATOM     31  G   UNL     1       1.283  29.472  18.276  1.00  0.00     0.000 G0
ENDBRANCH  26  27
BRANCH  26  32
ATOM     32  C   UNL     1       5.379  31.485  17.852  1.00  0.00     0.326 C 
ATOM     33  O   UNL     1       6.391  31.646  18.517  1.00  0.00    -0.250 OA
BRANCH  32  34
ATOM     34  O   UNL     1       4.789  32.524  17.572  1.00  0.00    -0.480 OA
ATOM     35  H   UNL     1       4.884  32.902  16.783  1.00  0.00     0.296 HD
ENDBRANCH  32  34
ENDBRANCH  26  32
ENDBRANCH  25  26
ENDBRANCH  20  25
ENDBRANCH  14  17
BRANCH  16  36
ATOM     36  O   UNL     1       1.689  29.775  11.043  1.00  0.00    -0.507 OA
ATOM     37  H   UNL     1       1.217  29.505  10.350  1.00  0.00     0.293 HD
ENDBRANCH  16  36
ENDBRANCH   3  11
ENDBRANCH   1   3
BRANCH   1  38
ATOM     38  C   UNL     1      -1.348  33.604  15.172  1.00  0.00     0.242 C 
ATOM     39  O   UNL     1      -1.546  33.806  13.977  1.00  0.00    -0.273 OA
BRANCH  38  40
ATOM     40  C   UNL     1      -0.659  34.728  15.813  1.00  0.00     0.216 C 
BRANCH  40  41
ATOM     41  N   UNL     1       0.719  34.546  15.818  1.00  0.00    -0.345 N 
ATOM     42  C   UNL     1       1.658  34.751  14.944  1.00  0.00     0.242 C 
ATOM     43  H   UNL     1       1.019  34.161  16.618  1.00  0.00     0.164 HD
ATOM     44  O   UNL     1       2.705  34.286  15.378  1.00  0.00    -0.273 OA
BRANCH  42  45
ATOM     45  C   UNL     1       1.643  35.345  13.597  1.00  0.00     0.168 C 
ATOM     46  C   UNL     1       1.540  34.369  12.394  1.00  0.00     0.041 C 
BRANCH  45  47
ATOM     47  N   UNL     1       0.508  36.149  13.429  1.00  0.00    -0.343 N 
ATOM     48  C   UNL     1       0.281  37.398  13.158  1.00  0.00     0.245 C 
ATOM     49  H   UNL     1      -0.279  35.657  13.559  1.00  0.00     0.164 HD
ATOM     50  O   UNL     1      -0.930  37.577  13.122  1.00  0.00    -0.273 OA
BRANCH  48  51
ATOM     51  C   UNL     1       1.129  38.575  12.935  1.00  0.00     0.199 C 
BRANCH  51  52
ATOM     52  N   UNL     1       1.371  38.778  11.535  1.00  0.00    -0.332 N 
ATOM     53  C   UNL     1       1.253  40.094  11.013  1.00  0.00     0.147 C 
BRANCH  52  54
ATOM     54  C   UNL     1       1.662  37.766  10.731  1.00  0.00     0.219 C 
ATOM     55  O   UNL     1       2.743  37.194  10.830  1.00  0.00    -0.275 OA
ATOM     56  C   UNL     1       0.819  37.257   9.662  1.00  0.00     0.114 C 
ENDBRANCH  52  54
ENDBRANCH  51  52
BRANCH  51  57
ATOM     57  C   UNL     1       2.388  38.805  13.830  1.00  0.00     0.191 C 
BRANCH  57  58
ATOM     58  O   UNL     1       3.563  38.337  13.172  1.00  0.00    -0.394 OA
ATOM     59  H   UNL     1       3.610  38.837  12.330  1.00  0.00     0.210 HD
ENDBRANCH  57  58
ENDBRANCH  51  57
ENDBRANCH  48  51
ENDBRANCH  45  47
ENDBRANCH  42  45
ENDBRANCH  40  41
ENDBRANCH  38  40
ENDBRANCH   1  38
TORSDOF 15
ENDMDL
MODEL 2
REMARK VINA RESULT:    -9.998      3.031      8.233
REMARK INTER + INTRA:         -16.381
REMARK INTER:                 -12.311
REMARK INTRA:                  -4.070
REMARK UNBOUND:                 5.307
REMARK SMILES CC(=O)N(C)[C@H](CO)C(=O)N[C@H](C)C(=O)NCC(=O)N(C)[C@@H]1C(=O)N[C@@H](C)C(=O)N[C@H](C(=O)O)Cc2ccc(O)c(c2)-c2cc1ccc2O
REMARK SMILES IDX 20 1 21 2 22 3 23 4 24 5 25 6 26 8 27 9 45 11 44 12 46 13
REMARK SMILES IDX 43 14 47 15 48 16 41 17 42 18 39 19 36 20 38 21 37 22 40 23
REMARK SMILES IDX 35 25 31 26 30 27 28 28 29 30 32 32 33 33 34 34 49 36 18 38
REMARK SMILES IDX 19 39 17 40 16 41 14 42 15 44 12 45 13 46 11 47 9 48 10 50
REMARK SMILES IDX 6 51 4 52 5 53 2 54 3 55 1 56 7 57 8 58
REMARK H PARENT 25 7 40 24 30 29 34 35 49 37 16 43 11 49 8 59
REMARK Flexibility Score: 80.00
ROOT
ATOM      1  N   UNL     1      -1.722  31.291  16.160  1.00  0.00    -0.328 N 
ATOM      2  C   UNL     1      -1.474  30.714  14.892  1.00  0.00     0.148 C 
ENDROOT
BRANCH   1   3
ATOM      3  C   UNL     1      -2.700  32.349  16.257  1.00  0.00     0.204 C 
BRANCH   3   4
ATOM      4  C   UNL     1      -3.689  32.628  15.184  1.00  0.00     0.248 C 
ATOM      5  O   UNL     1      -4.823  32.164  15.233  1.00  0.00    -0.272 OA
ATOM      6  N   UNL     1      -3.394  33.408  14.184  1.00  0.00    -0.342 N 
ATOM      7  H   UNL     1      -2.507  33.329  13.911  1.00  0.00     0.164 HD
BRANCH   6   8
ATOM      8  C   UNL     1      -4.123  34.412  13.505  1.00  0.00     0.168 CG0
ATOM      9  C   UNL     1      -4.629  35.534  14.464  1.00  0.00     0.041 C 
ATOM     10  G   UNL     1      -3.334  34.964  12.390  1.00  0.00     0.000 G0
ENDBRANCH   6   8
ENDBRANCH   3   4
BRANCH   3  11
ATOM     11  C   UNL     1      -2.048  33.659  16.606  1.00  0.00    -0.015 A 
ATOM     12  C   UNL     1      -1.180  34.289  15.683  1.00  0.00     0.019 A 
ATOM     13  C   UNL     1      -2.317  34.344  17.813  1.00  0.00     0.010 A 
ATOM     14  C   UNL     1      -0.750  35.622  15.844  1.00  0.00     0.028 A 
ATOM     15  C   UNL     1      -1.800  35.632  18.047  1.00  0.00     0.047 A 
ATOM     16  C   UNL     1      -1.039  36.287  17.058  1.00  0.00     0.123 A 
BRANCH  14  17
ATOM     17  C   UNL     1      -0.185  36.231  14.697  1.00  0.00     0.027 A 
ATOM     18  C   UNL     1      -1.083  36.928  13.855  1.00  0.00     0.016 A 
ATOM     19  C   UNL     1       1.154  36.063  14.276  1.00  0.00     0.123 A 
ATOM     20  C   UNL     1      -0.726  37.342  12.553  1.00  0.00    -0.044 A 
ATOM     21  C   UNL     1       1.552  36.547  13.013  1.00  0.00     0.047 A 
ATOM     22  C   UNL     1       0.618  37.160  12.155  1.00  0.00     0.007 A 
BRANCH  19  23
ATOM     23  O   UNL     1       1.988  35.466  15.003  1.00  0.00    -0.507 OA
ATOM     24  H   UNL     1       1.725  35.001  15.704  1.00  0.00     0.293 HD
ENDBRANCH  19  23
BRANCH  20  25
ATOM     25  C   UNL     1      -1.760  37.919  11.648  1.00  0.00     0.072 C 
BRANCH  25  26
ATOM     26  C   UNL     1      -2.792  36.931  11.000  1.00  0.00     0.196 C 
BRANCH  26  27
ATOM     27  N   UNL     1      -3.538  36.150  11.911  1.00  0.00    -0.341 N 
ATOM     28  C   UNL     1      -3.331  34.953  12.400  1.00  0.00     0.242 CG0
ATOM     29  H   UNL     1      -4.302  36.575  12.243  1.00  0.00     0.164 HD
ATOM     30  O   UNL     1      -2.426  34.284  11.912  1.00  0.00    -0.273 OA
ATOM     31  G   UNL     1      -4.139  34.413  13.507  1.00  0.00     0.000 G0
ENDBRANCH  26  27
BRANCH  26  32
ATOM     32  C   UNL     1      -2.296  36.248   9.808  1.00  0.00     0.326 C 
ATOM     33  O   UNL     1      -1.158  36.361   9.380  1.00  0.00    -0.250 OA
BRANCH  32  34
ATOM     34  O   UNL     1      -3.001  35.474   9.167  1.00  0.00    -0.480 OA
ATOM     35  H   UNL     1      -3.820  35.696   8.932  1.00  0.00     0.296 HD
ENDBRANCH  32  34
ENDBRANCH  26  32
ENDBRANCH  25  26
ENDBRANCH  20  25
ENDBRANCH  14  17
BRANCH  16  36
ATOM     36  O   UNL     1      -0.651  37.466  17.260  1.00  0.00    -0.507 OA
ATOM     37  H   UNL     1      -0.349  37.711  18.050  1.00  0.00     0.293 HD
ENDBRANCH  16  36
ENDBRANCH   3  11
ENDBRANCH   1   3
BRANCH   1  38
ATOM     38  C   UNL     1      -1.072  30.856  17.256  1.00  0.00     0.242 C 
ATOM     39  O   UNL     1      -1.717  30.616  18.272  1.00  0.00    -0.273 OA
BRANCH  38  40
ATOM     40  C   UNL     1       0.364  30.625  17.448  1.00  0.00     0.216 C 
BRANCH  40  41
ATOM     41  N   UNL     1       1.105  31.767  17.168  1.00  0.00    -0.345 N 
ATOM     42  C   UNL     1       1.921  32.100  16.214  1.00  0.00     0.242 C 
ATOM     43  H   UNL     1       1.013  32.418  17.836  1.00  0.00     0.164 HD
ATOM     44  O   UNL     1       2.441  33.173  16.499  1.00  0.00    -0.273 OA
BRANCH  42  45
ATOM     45  C   UNL     1       2.335  31.411  14.980  1.00  0.00     0.168 C 
ATOM     46  C   UNL     1       1.685  31.885  13.652  1.00  0.00     0.041 C 
BRANCH  45  47
ATOM     47  N   UNL     1       3.699  31.620  14.737  1.00  0.00    -0.343 N 
ATOM     48  C   UNL     1       4.812  31.290  15.319  1.00  0.00     0.245 C 
ATOM     49  H   UNL     1       3.832  32.139  13.968  1.00  0.00     0.164 HD
ATOM     50  O   UNL     1       5.744  31.740  14.665  1.00  0.00    -0.273 OA
BRANCH  48  51
ATOM     51  C   UNL     1       5.157  30.562  16.545  1.00  0.00     0.199 C 
BRANCH  51  52
ATOM     52  N   UNL     1       4.604  29.238  16.532  1.00  0.00    -0.332 N 
ATOM     53  C   UNL     1       3.640  28.899  17.519  1.00  0.00     0.147 C 
BRANCH  52  54
ATOM     54  C   UNL     1       5.001  28.332  15.650  1.00  0.00     0.219 C 
ATOM     55  O   UNL     1       4.203  27.879  14.836  1.00  0.00    -0.275 OA
ATOM     56  C   UNL     1       6.332  27.756  15.561  1.00  0.00     0.114 C 
ENDBRANCH  52  54
ENDBRANCH  51  52
BRANCH  51  57
ATOM     57  C   UNL     1       5.043  31.276  17.929  1.00  0.00     0.191 C 
BRANCH  57  58
ATOM     58  O   UNL     1       5.179  32.688  17.779  1.00  0.00    -0.394 OA
ATOM     59  H   UNL     1       6.089  32.830  17.442  1.00  0.00     0.210 HD
ENDBRANCH  57  58
ENDBRANCH  51  57
ENDBRANCH  48  51
ENDBRANCH  45  47
ENDBRANCH  42  45
ENDBRANCH  40  41
ENDBRANCH  38  40
ENDBRANCH   1  38
TORSDOF 15
ENDMDL
MODEL 3
REMARK VINA RESULT:    -9.952      2.290      3.719
REMARK INTER + INTRA:         -16.280
REMARK INTER:                 -13.444
REMARK INTRA:                  -2.836
REMARK UNBOUND:                 5.307
REMARK SMILES CC(=O)N(C)[C@H](CO)C(=O)N[C@H](C)C(=O)NCC(=O)N(C)[C@@H]1C(=O)N[C@@H](C)C(=O)N[C@H](C(=O)O)Cc2ccc(O)c(c2)-c2cc1ccc2O
REMARK SMILES IDX 20 1 21 2 22 3 23 4 24 5 25 6 26 8 27 9 45 11 44 12 46 13
REMARK SMILES IDX 43 14 47 15 48 16 41 17 42 18 39 19 36 20 38 21 37 22 40 23
REMARK SMILES IDX 35 25 31 26 30 27 28 28 29 30 32 32 33 33 34 34 49 36 18 38
REMARK SMILES IDX 19 39 17 40 16 41 14 42 15 44 12 45 13 46 11 47 9 48 10 50
REMARK SMILES IDX 6 51 4 52 5 53 2 54 3 55 1 56 7 57 8 58
REMARK H PARENT 25 7 40 24 30 29 34 35 49 37 16 43 11 49 8 59
REMARK Flexibility Score: 80.00
ROOT
ATOM      1  N   UNL     1      -0.861  30.494  15.217  1.00  0.00    -0.328 N 
ATOM      2  C   UNL     1      -2.007  30.202  14.439  1.00  0.00     0.148 C 
ENDROOT
BRANCH   1   3
ATOM      3  C   UNL     1       0.252  29.576  15.173  1.00  0.00     0.204 C 
BRANCH   3   4
ATOM      4  C   UNL     1       0.463  28.520  16.197  1.00  0.00     0.248 C 
ATOM      5  O   UNL     1      -0.297  28.402  17.151  1.00  0.00    -0.272 OA
ATOM      6  N   UNL     1       1.436  27.662  16.086  1.00  0.00    -0.342 N 
ATOM      7  H   UNL     1       2.208  28.031  15.716  1.00  0.00     0.164 HD
BRANCH   6   8
ATOM      8  C   UNL     1       1.518  26.270  16.323  1.00  0.00     0.168 CG0
ATOM      9  C   UNL     1       1.435  25.435  15.008  1.00  0.00     0.041 C 
ATOM     10  G   UNL     1       2.726  25.943  17.100  1.00  0.00     0.000 G0
ENDBRANCH   6   8
ENDBRANCH   3   4
BRANCH   3  11
ATOM     11  C   UNL     1       1.556  30.313  15.026  1.00  0.00    -0.015 A 
ATOM     12  C   UNL     1       2.454  30.391  16.117  1.00  0.00     0.019 A 
ATOM     13  C   UNL     1       1.971  30.889  13.804  1.00  0.00     0.010 A 
ATOM     14  C   UNL     1       3.784  30.838  15.966  1.00  0.00     0.028 A 
ATOM     15  C   UNL     1       3.254  31.448  13.663  1.00  0.00     0.047 A 
ATOM     16  C   UNL     1       4.174  31.403  14.730  1.00  0.00     0.123 A 
BRANCH  14  17
ATOM     17  C   UNL     1       4.660  30.540  17.038  1.00  0.00     0.027 A 
ATOM     18  C   UNL     1       4.898  29.168  17.286  1.00  0.00     0.016 A 
ATOM     19  C   UNL     1       5.176  31.496  17.943  1.00  0.00     0.123 A 
ATOM     20  C   UNL     1       5.514  28.713  18.472  1.00  0.00    -0.044 A 
ATOM     21  C   UNL     1       5.871  31.063  19.091  1.00  0.00     0.047 A 
ATOM     22  C   UNL     1       6.019  29.688  19.362  1.00  0.00     0.007 A 
BRANCH  19  23
ATOM     23  O   UNL     1       5.002  32.726  17.750  1.00  0.00    -0.507 OA
ATOM     24  H   UNL     1       4.559  33.216  18.333  1.00  0.00     0.293 HD
ENDBRANCH  19  23
BRANCH  20  25
ATOM     25  C   UNL     1       5.586  27.252  18.757  1.00  0.00     0.072 C 
BRANCH  25  26
ATOM     26  C   UNL     1       4.237  26.491  19.002  1.00  0.00     0.196 C 
BRANCH  26  27
ATOM     27  N   UNL     1       3.237  26.703  18.027  1.00  0.00    -0.341 N 
ATOM     28  C   UNL     1       2.737  25.913  17.111  1.00  0.00     0.242 CG0
ATOM     29  H   UNL     1       2.845  27.552  18.060  1.00  0.00     0.164 HD
ATOM     30  O   UNL     1       3.290  24.836  16.920  1.00  0.00    -0.273 OA
ATOM     31  G   UNL     1       1.542  26.282  16.332  1.00  0.00     0.000 G0
ENDBRANCH  26  27
BRANCH  26  32
ATOM     32  C   UNL     1       3.799  26.487  20.395  1.00  0.00     0.326 C 
ATOM     33  O   UNL     1       2.753  26.985  20.784  1.00  0.00    -0.250 OA
BRANCH  32  34
ATOM     34  O   UNL     1       4.456  25.942  21.277  1.00  0.00    -0.480 OA
ATOM     35  H   UNL     1       5.335  25.973  21.273  1.00  0.00     0.296 HD
ENDBRANCH  32  34
ENDBRANCH  26  32
ENDBRANCH  25  26
ENDBRANCH  20  25
ENDBRANCH  14  17
BRANCH  16  36
ATOM     36  O   UNL     1       5.340  31.841  14.558  1.00  0.00    -0.507 OA
ATOM     37  H   UNL     1       5.508  32.435  13.929  1.00  0.00     0.293 HD
ENDBRANCH  16  36
ENDBRANCH   3  11
ENDBRANCH   1   3
BRANCH   1  38
ATOM     38  C   UNL     1      -0.804  31.607  15.972  1.00  0.00     0.242 C 
ATOM     39  O   UNL     1      -0.874  31.499  17.193  1.00  0.00    -0.273 OA
BRANCH  38  40
ATOM     40  C   UNL     1      -0.681  33.005  15.549  1.00  0.00     0.216 C 
BRANCH  40  41
ATOM     41  N   UNL     1       0.621  33.469  15.699  1.00  0.00    -0.345 N 
ATOM     42  C   UNL     1       1.228  34.570  15.372  1.00  0.00     0.242 C 
ATOM     43  H   UNL     1       1.180  32.828  16.093  1.00  0.00     0.164 HD
ATOM     44  O   UNL     1       2.427  34.436  15.588  1.00  0.00    -0.273 OA
BRANCH  42  45
ATOM     45  C   UNL     1       0.747  35.823  14.766  1.00  0.00     0.168 C 
ATOM     46  C   UNL     1      -0.254  36.672  15.596  1.00  0.00     0.041 C 
BRANCH  45  47
ATOM     47  N   UNL     1       1.811  36.715  14.576  1.00  0.00    -0.343 N 
ATOM     48  C   UNL     1       1.983  37.845  13.960  1.00  0.00     0.245 C 
ATOM     49  H   UNL     1       2.593  36.404  14.989  1.00  0.00     0.164 HD
ATOM     50  O   UNL     1       3.142  38.206  14.121  1.00  0.00    -0.273 OA
BRANCH  48  51
ATOM     51  C   UNL     1       1.133  38.706  13.130  1.00  0.00     0.199 C 
BRANCH  51  52
ATOM     52  N   UNL     1       0.544  37.965  12.051  1.00  0.00    -0.332 N 
ATOM     53  C   UNL     1      -0.858  37.743  12.070  1.00  0.00     0.147 C 
BRANCH  52  54
ATOM     54  C   UNL     1       1.286  37.461  11.074  1.00  0.00     0.219 C 
ATOM     55  O   UNL     1       1.940  38.208  10.354  1.00  0.00    -0.275 OA
ATOM     56  C   UNL     1       1.383  36.056  10.716  1.00  0.00     0.114 C 
ENDBRANCH  52  54
ENDBRANCH  51  52
BRANCH  51  57
ATOM     57  C   UNL     1       1.636  40.125  12.715  1.00  0.00     0.191 C 
BRANCH  57  58
ATOM     58  O   UNL     1       1.905  40.919  13.867  1.00  0.00    -0.394 OA
ATOM     59  H   UNL     1       2.210  40.291  14.555  1.00  0.00     0.210 HD
ENDBRANCH  57  58
ENDBRANCH  51  57
ENDBRANCH  48  51
ENDBRANCH  45  47
ENDBRANCH  42  45
ENDBRANCH  40  41
ENDBRANCH  38  40
ENDBRANCH   1  38
TORSDOF 15
ENDMDL
MODEL 4
REMARK VINA RESULT:    -9.815      3.251      7.618
REMARK INTER + INTRA:         -15.983
REMARK INTER:                 -11.040
REMARK INTRA:                  -4.943
REMARK UNBOUND:                 5.307
REMARK SMILES CC(=O)N(C)[C@H](CO)C(=O)N[C@H](C)C(=O)NCC(=O)N(C)[C@@H]1C(=O)N[C@@H](C)C(=O)N[C@H](C(=O)O)Cc2ccc(O)c(c2)-c2cc1ccc2O
REMARK SMILES IDX 20 1 21 2 22 3 23 4 24 5 25 6 26 8 27 9 45 11 44 12 46 13
REMARK SMILES IDX 43 14 47 15 48 16 41 17 42 18 39 19 36 20 38 21 37 22 40 23
REMARK SMILES IDX 35 25 31 26 30 27 28 28 29 30 32 32 33 33 34 34 49 36 18 38
REMARK SMILES IDX 19 39 17 40 16 41 14 42 15 44 12 45 13 46 11 47 9 48 10 50
REMARK SMILES IDX 6 51 4 52 5 53 2 54 3 55 1 56 7 57 8 58
REMARK H PARENT 25 7 40 24 30 29 34 35 49 37 16 43 11 49 8 59
REMARK Flexibility Score: 80.00
ROOT
ATOM      1  N   UNL     1      -1.440  30.079  14.824  1.00  0.00    -0.328 N 
ATOM      2  C   UNL     1      -1.052  28.904  14.136  1.00  0.00     0.148 C 
ENDROOT
BRANCH   1   3
ATOM      3  C   UNL     1      -1.557  31.308  14.076  1.00  0.00     0.204 C 
BRANCH   3   4
ATOM      4  C   UNL     1      -1.551  31.348  12.590  1.00  0.00     0.248 C 
ATOM      5  O   UNL     1      -2.598  31.409  11.955  1.00  0.00    -0.272 OA
ATOM      6  N   UNL     1      -0.433  31.362  11.923  1.00  0.00    -0.342 N 
ATOM      7  H   UNL     1       0.235  30.848  12.320  1.00  0.00     0.164 HD
BRANCH   6   8
ATOM      8  C   UNL     1      -0.010  32.078  10.779  1.00  0.00     0.168 CG0
ATOM      9  C   UNL     1       0.007  33.620  11.012  1.00  0.00     0.041 C 
ATOM     10  G   UNL     1       1.297  31.584  10.309  1.00  0.00     0.000 G0
ENDBRANCH   6   8
ENDBRANCH   3   4
BRANCH   3  11
ATOM     11  C   UNL     1      -0.555  32.327  14.547  1.00  0.00    -0.015 A 
ATOM     12  C   UNL     1       0.823  32.007  14.575  1.00  0.00     0.019 A 
ATOM     13  C   UNL     1      -0.922  33.643  14.908  1.00  0.00     0.010 A 
ATOM     14  C   UNL     1       1.819  32.989  14.757  1.00  0.00     0.028 A 
ATOM     15  C   UNL     1       0.054  34.612  15.210  1.00  0.00     0.047 A 
ATOM     16  C   UNL     1       1.425  34.300  15.112  1.00  0.00     0.123 A 
BRANCH  14  17
ATOM     17  C   UNL     1       3.138  32.599  14.419  1.00  0.00     0.027 A 
ATOM     18  C   UNL     1       3.332  32.132  13.099  1.00  0.00     0.016 A 
ATOM     19  C   UNL     1       4.209  32.509  15.338  1.00  0.00     0.123 A 
ATOM     20  C   UNL     1       4.507  31.457  12.704  1.00  0.00    -0.044 A 
ATOM     21  C   UNL     1       5.423  31.915  14.936  1.00  0.00     0.047 A 
ATOM     22  C   UNL     1       5.562  31.377  13.641  1.00  0.00     0.007 A 
BRANCH  19  23
ATOM     23  O   UNL     1       4.085  32.930  16.517  1.00  0.00    -0.507 OA
ATOM     24  H   UNL     1       3.482  33.541  16.717  1.00  0.00     0.293 HD
ENDBRANCH  19  23
BRANCH  20  25
ATOM     25  C   UNL     1       4.587  30.837  11.351  1.00  0.00     0.072 C 
BRANCH  25  26
ATOM     26  C   UNL     1       3.290  30.168  10.779  1.00  0.00     0.196 C 
BRANCH  26  27
ATOM     27  N   UNL     1       2.083  30.849  11.058  1.00  0.00    -0.341 N 
ATOM     28  C   UNL     1       1.319  31.603  10.308  1.00  0.00     0.242 CG0
ATOM     29  H   UNL     1       1.761  30.716  11.926  1.00  0.00     0.164 HD
ATOM     30  O   UNL     1       1.744  31.930   9.206  1.00  0.00    -0.273 OA
ATOM     31  G   UNL     1      -0.014  32.044  10.752  1.00  0.00     0.000 G0
ENDBRANCH  26  27
BRANCH  26  32
ATOM     32  C   UNL     1       3.262  28.713  10.909  1.00  0.00     0.326 C 
ATOM     33  O   UNL     1       2.238  28.057  11.027  1.00  0.00    -0.250 OA
BRANCH  32  34
ATOM     34  O   UNL     1       4.289  28.042  10.875  1.00  0.00    -0.480 OA
ATOM     35  H   UNL     1       4.471  27.459  11.510  1.00  0.00     0.296 HD
ENDBRANCH  32  34
ENDBRANCH  26  32
ENDBRANCH  25  26
ENDBRANCH  20  25
ENDBRANCH  14  17
BRANCH  16  36
ATOM     36  O   UNL     1       2.278  35.201  15.313  1.00  0.00    -0.507 OA
ATOM     37  H   UNL     1       2.930  35.339  14.737  1.00  0.00     0.293 HD
ENDBRANCH  16  36
ENDBRANCH   3  11
ENDBRANCH   1   3
BRANCH   1  38
ATOM     38  C   UNL     1      -1.707  30.051  16.143  1.00  0.00     0.242 C 
ATOM     39  O   UNL     1      -2.838  30.338  16.525  1.00  0.00    -0.273 OA
BRANCH  38  40
ATOM     40  C   UNL     1      -0.813  29.733  17.260  1.00  0.00     0.216 C 
BRANCH  40  41
ATOM     41  N   UNL     1       0.086  30.765  17.504  1.00  0.00    -0.345 N 
ATOM     42  C   UNL     1       1.375  30.822  17.651  1.00  0.00     0.242 C 
ATOM     43  H   UNL     1      -0.348  31.589  17.616  1.00  0.00     0.164 HD
ATOM     44  O   UNL     1       1.681  31.956  18.000  1.00  0.00    -0.273 OA
BRANCH  42  45
ATOM     45  C   UNL     1       2.430  29.800  17.538  1.00  0.00     0.168 C 
ATOM     46  C   UNL     1       2.655  29.165  16.140  1.00  0.00     0.041 C 
BRANCH  45  47
ATOM     47  N   UNL     1       3.684  30.358  17.819  1.00  0.00    -0.343 N 
ATOM     48  C   UNL     1       4.768  29.964  18.415  1.00  0.00     0.245 C 
ATOM     49  H   UNL     1       3.741  31.240  17.508  1.00  0.00     0.164 HD
ATOM     50  O   UNL     1       5.588  30.872  18.375  1.00  0.00    -0.273 OA
BRANCH  48  51
ATOM     51  C   UNL     1       5.173  28.740  19.115  1.00  0.00     0.199 C 
BRANCH  51  52
ATOM     52  N   UNL     1       5.323  27.647  18.197  1.00  0.00    -0.332 N 
ATOM     53  C   UNL     1       4.432  26.547  18.305  1.00  0.00     0.147 C 
BRANCH  52  54
ATOM     54  C   UNL     1       6.290  27.635  17.289  1.00  0.00     0.219 C 
ATOM     55  O   UNL     1       7.429  27.314  17.610  1.00  0.00    -0.275 OA
ATOM     56  C   UNL     1       6.153  28.019  15.894  1.00  0.00     0.114 C 
ENDBRANCH  52  54
ENDBRANCH  51  52
BRANCH  51  57
ATOM     57  C   UNL     1       4.473  28.343  20.453  1.00  0.00     0.191 C 
BRANCH  57  58
ATOM     58  O   UNL     1       3.160  28.896  20.516  1.00  0.00    -0.394 OA
ATOM     59  H   UNL     1       2.586  28.175  20.851  1.00  0.00     0.210 HD
ENDBRANCH  57  58
ENDBRANCH  51  57
ENDBRANCH  48  51
ENDBRANCH  45  47
ENDBRANCH  42  45
ENDBRANCH  40  41
ENDBRANCH  38  40
ENDBRANCH   1  38
TORSDOF 15
ENDMDL
MODEL 5
REMARK VINA RESULT:    -9.810      3.122      8.415
REMARK INTER + INTRA:         -15.973
REMARK INTER:                 -13.596
REMARK INTRA:                  -2.377
REMARK UNBOUND:                 5.307
REMARK SMILES CC(=O)N(C)[C@H](CO)C(=O)N[C@H](C)C(=O)NCC(=O)N(C)[C@@H]1C(=O)N[C@@H](C)C(=O)N[C@H](C(=O)O)Cc2ccc(O)c(c2)-c2cc1ccc2O
REMARK SMILES IDX 20 1 21 2 22 3 23 4 24 5 25 6 26 8 27 9 45 11 44 12 46 13
REMARK SMILES IDX 43 14 47 15 48 16 41 17 42 18 39 19 36 20 38 21 37 22 40 23
REMARK SMILES IDX 35 25 31 26 30 27 28 28 29 30 32 32 33 33 34 34 49 36 18 38
REMARK SMILES IDX 19 39 17 40 16 41 14 42 15 44 12 45 13 46 11 47 9 48 10 50
REMARK SMILES IDX 6 51 4 52 5 53 2 54 3 55 1 56 7 57 8 58
REMARK H PARENT 25 7 40 24 30 29 34 35 49 37 16 43 11 49 8 59
REMARK Flexibility Score: 80.00
ROOT
ATOM      1  N   UNL     1      -1.437  31.221  16.091  1.00  0.00    -0.328 N 
ATOM      2  C   UNL     1      -1.236  30.642  14.814  1.00  0.00     0.148 C 
ENDROOT
BRANCH   1   3
ATOM      3  C   UNL     1      -2.479  32.208  16.243  1.00  0.00     0.204 C 
BRANCH   3   4
ATOM      4  C   UNL     1      -3.529  32.433  15.216  1.00  0.00     0.248 C 
ATOM      5  O   UNL     1      -4.668  32.008  15.371  1.00  0.00    -0.272 OA
ATOM      6  N   UNL     1      -3.279  33.125  14.141  1.00  0.00    -0.342 N 
ATOM      7  H   UNL     1      -2.414  33.000  13.820  1.00  0.00     0.164 HD
BRANCH   6   8
ATOM      8  C   UNL     1      -4.026  34.095  13.432  1.00  0.00     0.168 CG0
ATOM      9  C   UNL     1      -4.543  35.242  14.354  1.00  0.00     0.041 C 
ATOM     10  G   UNL     1      -3.250  34.620  12.294  1.00  0.00     0.000 G0
ENDBRANCH   6   8
ENDBRANCH   3   4
BRANCH   3  11
ATOM     11  C   UNL     1      -1.904  33.555  16.587  1.00  0.00    -0.015 A 
ATOM     12  C   UNL     1      -1.050  34.217  15.673  1.00  0.00     0.019 A 
ATOM     13  C   UNL     1      -2.235  34.242  17.777  1.00  0.00     0.010 A 
ATOM     14  C   UNL     1      -0.693  35.573  15.824  1.00  0.00     0.028 A 
ATOM     15  C   UNL     1      -1.791  35.558  18.004  1.00  0.00     0.047 A 
ATOM     16  C   UNL     1      -1.043  36.238  17.022  1.00  0.00     0.123 A 
BRANCH  14  17
ATOM     17  C   UNL     1      -0.135  36.195  14.680  1.00  0.00     0.027 A 
ATOM     18  C   UNL     1      -1.053  36.789  13.783  1.00  0.00     0.016 A 
ATOM     19  C   UNL     1       1.229  36.129  14.315  1.00  0.00     0.123 A 
ATOM     20  C   UNL     1      -0.680  37.195  12.483  1.00  0.00    -0.044 A 
ATOM     21  C   UNL     1       1.635  36.608  13.053  1.00  0.00     0.047 A 
ATOM     22  C   UNL     1       0.689  37.116  12.142  1.00  0.00     0.007 A 
BRANCH  19  23
ATOM     23  O   UNL     1       2.081  35.624  15.091  1.00  0.00    -0.507 OA
ATOM     24  H   UNL     1       2.545  36.131  15.643  1.00  0.00     0.293 HD
ENDBRANCH  19  23
BRANCH  20  25
ATOM     25  C   UNL     1      -1.722  37.657  11.523  1.00  0.00     0.072 C 
BRANCH  25  26
ATOM     26  C   UNL     1      -2.652  36.570  10.879  1.00  0.00     0.196 C 
BRANCH  26  27
ATOM     27  N   UNL     1      -3.415  35.809  11.793  1.00  0.00    -0.341 N 
ATOM     28  C   UNL     1      -3.217  34.624  12.314  1.00  0.00     0.242 CG0
ATOM     29  H   UNL     1      -4.187  36.240  12.098  1.00  0.00     0.164 HD
ATOM     30  O   UNL     1      -2.301  33.946  11.861  1.00  0.00    -0.273 OA
ATOM     31  G   UNL     1      -4.048  34.109  13.415  1.00  0.00     0.000 G0
ENDBRANCH  26  27
BRANCH  26  32
ATOM     32  C   UNL     1      -2.038  35.839   9.774  1.00  0.00     0.326 C 
ATOM     33  O   UNL     1      -2.593  35.622   8.707  1.00  0.00    -0.250 OA
BRANCH  32  34
ATOM     34  O   UNL     1      -0.889  35.414   9.839  1.00  0.00    -0.480 OA
ATOM     35  H   UNL     1      -0.686  34.606   9.554  1.00  0.00     0.296 HD
ENDBRANCH  32  34
ENDBRANCH  26  32
ENDBRANCH  25  26
ENDBRANCH  20  25
ENDBRANCH  14  17
BRANCH  16  36
ATOM     36  O   UNL     1      -0.721  37.438  17.214  1.00  0.00    -0.507 OA
ATOM     37  H   UNL     1      -0.881  38.050  16.600  1.00  0.00     0.293 HD
ENDBRANCH  16  36
ENDBRANCH   3  11
ENDBRANCH   1   3
BRANCH   1  38
ATOM     38  C   UNL     1      -0.683  30.852  17.143  1.00  0.00     0.242 C 
ATOM     39  O   UNL     1      -1.238  30.405  18.142  1.00  0.00    -0.273 OA
BRANCH  38  40
ATOM     40  C   UNL     1       0.773  30.917  17.304  1.00  0.00     0.216 C 
BRANCH  40  41
ATOM     41  N   UNL     1       1.361  29.669  17.128  1.00  0.00    -0.345 N 
ATOM     42  C   UNL     1       2.142  28.930  17.856  1.00  0.00     0.242 C 
ATOM     43  H   UNL     1       1.171  29.308  16.284  1.00  0.00     0.164 HD
ATOM     44  O   UNL     1       2.510  27.971  17.188  1.00  0.00    -0.273 OA
BRANCH  42  45
ATOM     45  C   UNL     1       2.666  29.092  19.223  1.00  0.00     0.168 C 
ATOM     46  C   UNL     1       2.320  27.980  20.250  1.00  0.00     0.041 C 
BRANCH  45  47
ATOM     47  N   UNL     1       4.067  29.067  19.216  1.00  0.00    -0.343 N 
ATOM     48  C   UNL     1       5.011  29.817  18.735  1.00  0.00     0.245 C 
ATOM     49  H   UNL     1       4.396  28.311  19.661  1.00  0.00     0.164 HD
ATOM     50  O   UNL     1       6.092  29.324  19.030  1.00  0.00    -0.273 OA
BRANCH  48  51
ATOM     51  C   UNL     1       5.044  31.042  17.927  1.00  0.00     0.199 C 
BRANCH  51  52
ATOM     52  N   UNL     1       5.143  30.735  16.528  1.00  0.00    -0.332 N 
ATOM     53  C   UNL     1       5.520  29.418  16.151  1.00  0.00     0.147 C 
BRANCH  52  54
ATOM     54  C   UNL     1       4.928  31.658  15.602  1.00  0.00     0.219 C 
ATOM     55  O   UNL     1       5.747  31.830  14.705  1.00  0.00    -0.275 OA
ATOM     56  C   UNL     1       3.793  32.564  15.549  1.00  0.00     0.114 C 
ENDBRANCH  52  54
ENDBRANCH  51  52
BRANCH  51  57
ATOM     57  C   UNL     1       5.941  32.241  18.371  1.00  0.00     0.191 C 
BRANCH  57  58
ATOM     58  O   UNL     1       6.871  31.828  19.370  1.00  0.00    -0.394 OA
ATOM     59  H   UNL     1       7.756  32.065  19.019  1.00  0.00     0.210 HD
ENDBRANCH  57  58
ENDBRANCH  51  57
ENDBRANCH  48  51
ENDBRANCH  45  47
ENDBRANCH  42  45
ENDBRANCH  40  41
ENDBRANCH  38  40
ENDBRANCH   1  38
TORSDOF 15
ENDMDL
MODEL 6
REMARK VINA RESULT:    -9.770      3.016      6.130
REMARK INTER + INTRA:         -15.885
REMARK INTER:                 -12.802
REMARK INTRA:                  -3.083
REMARK UNBOUND:                 5.307
REMARK SMILES CC(=O)N(C)[C@H](CO)C(=O)N[C@H](C)C(=O)NCC(=O)N(C)[C@@H]1C(=O)N[C@@H](C)C(=O)N[C@H](C(=O)O)Cc2ccc(O)c(c2)-c2cc1ccc2O
REMARK SMILES IDX 20 1 21 2 22 3 23 4 24 5 25 6 26 8 27 9 45 11 44 12 46 13
REMARK SMILES IDX 43 14 47 15 48 16 41 17 42 18 39 19 36 20 38 21 37 22 40 23
REMARK SMILES IDX 35 25 31 26 30 27 28 28 29 30 32 32 33 33 34 34 49 36 18 38
REMARK SMILES IDX 19 39 17 40 16 41 14 42 15 44 12 45 13 46 11 47 9 48 10 50
REMARK SMILES IDX 6 51 4 52 5 53 2 54 3 55 1 56 7 57 8 58
REMARK H PARENT 25 7 40 24 30 29 34 35 49 37 16 43 11 49 8 59
REMARK Flexibility Score: 80.00
ROOT
ATOM      1  N   UNL     1       4.247  31.245  14.723  1.00  0.00    -0.328 N 
ATOM      2  C   UNL     1       5.394  32.052  14.919  1.00  0.00     0.148 C 
ENDROOT
BRANCH   1   3
ATOM      3  C   UNL     1       4.430  29.882  14.287  1.00  0.00     0.204 C 
BRANCH   3   4
ATOM      4  C   UNL     1       3.307  29.033  13.810  1.00  0.00     0.248 C 
ATOM      5  O   UNL     1       3.314  28.547  12.685  1.00  0.00    -0.272 OA
ATOM      6  N   UNL     1       2.304  28.746  14.590  1.00  0.00    -0.342 N 
ATOM      7  H   UNL     1       2.073  29.446  15.159  1.00  0.00     0.164 HD
BRANCH   6   8
ATOM      8  C   UNL     1       1.570  27.557  14.807  1.00  0.00     0.168 CG0
ATOM      9  C   UNL     1       2.492  26.326  15.073  1.00  0.00     0.041 C 
ATOM     10  G   UNL     1       0.585  27.742  15.887  1.00  0.00     0.000 G0
ENDBRANCH   6   8
ENDBRANCH   3   4
BRANCH   3  11
ATOM     11  C   UNL     1       5.182  29.080  15.314  1.00  0.00    -0.015 A 
ATOM     12  C   UNL     1       4.806  29.143  16.677  1.00  0.00     0.019 A 
ATOM     13  C   UNL     1       6.227  28.194  14.972  1.00  0.00     0.010 A 
ATOM     14  C   UNL     1       5.297  28.232  17.635  1.00  0.00     0.028 A 
ATOM     15  C   UNL     1       6.816  27.356  15.938  1.00  0.00     0.047 A 
ATOM     16  C   UNL     1       6.339  27.351  17.264  1.00  0.00     0.123 A 
BRANCH  14  17
ATOM     17  C   UNL     1       4.588  28.184  18.861  1.00  0.00     0.027 A 
ATOM     18  C   UNL     1       3.219  27.838  18.776  1.00  0.00     0.016 A 
ATOM     19  C   UNL     1       5.112  28.593  20.108  1.00  0.00     0.123 A 
ATOM     20  C   UNL     1       2.329  28.017  19.858  1.00  0.00    -0.044 A 
ATOM     21  C   UNL     1       4.255  28.696  21.223  1.00  0.00     0.047 A 
ATOM     22  C   UNL     1       2.877  28.431  21.093  1.00  0.00     0.007 A 
BRANCH  19  23
ATOM     23  O   UNL     1       6.328  28.892  20.231  1.00  0.00    -0.507 OA
ATOM     24  H   UNL     1       6.583  29.524  20.789  1.00  0.00     0.293 HD
ENDBRANCH  19  23
BRANCH  20  25
ATOM     25  C   UNL     1       0.869  27.797  19.660  1.00  0.00     0.072 C 
BRANCH  25  26
ATOM     26  C   UNL     1       0.239  28.265  18.302  1.00  0.00     0.196 C 
BRANCH  26  27
ATOM     27  N   UNL     1       0.956  27.893  17.142  1.00  0.00    -0.341 N 
ATOM     28  C   UNL     1       0.576  27.743  15.898  1.00  0.00     0.242 CG0
ATOM     29  H   UNL     1       1.870  27.753  17.286  1.00  0.00     0.164 HD
ATOM     30  O   UNL     1      -0.626  27.778  15.659  1.00  0.00    -0.273 OA
ATOM     31  G   UNL     1       1.546  27.549  14.806  1.00  0.00     0.000 G0
ENDBRANCH  26  27
BRANCH  26  32
ATOM     32  C   UNL     1      -0.296  29.624  18.329  1.00  0.00     0.326 C 
ATOM     33  O   UNL     1      -1.488  29.889  18.315  1.00  0.00    -0.250 OA
BRANCH  32  34
ATOM     34  O   UNL     1       0.438  30.606  18.401  1.00  0.00    -0.480 OA
ATOM     35  H   UNL     1       0.894  30.779  19.133  1.00  0.00     0.296 HD
ENDBRANCH  32  34
ENDBRANCH  26  32
ENDBRANCH  25  26
ENDBRANCH  20  25
ENDBRANCH  14  17
BRANCH  16  36
ATOM     36  O   UNL     1       6.828  26.541  18.091  1.00  0.00    -0.507 OA
ATOM     37  H   UNL     1       7.635  26.667  18.421  1.00  0.00     0.293 HD
ENDBRANCH  16  36
ENDBRANCH   3  11
ENDBRANCH   1   3
BRANCH   1  38
ATOM     38  C   UNL     1       3.013  31.733  14.950  1.00  0.00     0.242 C 
ATOM     39  O   UNL     1       2.439  31.434  15.993  1.00  0.00    -0.273 OA
BRANCH  38  40
ATOM     40  C   UNL     1       2.190  32.598  14.098  1.00  0.00     0.216 C 
BRANCH  40  41
ATOM     41  N   UNL     1       2.316  33.935  14.458  1.00  0.00    -0.345 N 
ATOM     42  C   UNL     1       1.513  34.804  14.993  1.00  0.00     0.242 C 
ATOM     43  H   UNL     1       3.157  34.282  14.229  1.00  0.00     0.164 HD
ATOM     44  O   UNL     1       2.054  35.903  14.971  1.00  0.00    -0.273 OA
BRANCH  42  45
ATOM     45  C   UNL     1       0.141  34.693  15.515  1.00  0.00     0.168 C 
ATOM     46  C   UNL     1      -0.108  33.649  16.637  1.00  0.00     0.041 C 
BRANCH  45  47
ATOM     47  N   UNL     1      -0.248  35.891  16.130  1.00  0.00    -0.343 N 
ATOM     48  C   UNL     1      -1.371  36.432  16.492  1.00  0.00     0.245 C 
ATOM     49  H   UNL     1       0.493  36.437  16.308  1.00  0.00     0.164 HD
ATOM     50  O   UNL     1      -1.134  37.520  17.002  1.00  0.00    -0.273 OA
BRANCH  48  51
ATOM     51  C   UNL     1      -2.782  36.046  16.388  1.00  0.00     0.199 C 
BRANCH  51  52
ATOM     52  N   UNL     1      -3.087  35.553  15.074  1.00  0.00    -0.332 N 
ATOM     53  C   UNL     1      -2.890  36.419  13.966  1.00  0.00     0.147 C 
BRANCH  52  54
ATOM     54  C   UNL     1      -3.575  34.334  14.890  1.00  0.00     0.219 C 
ATOM     55  O   UNL     1      -3.862  33.953  13.760  1.00  0.00    -0.275 OA
ATOM     56  C   UNL     1      -3.862  33.365  15.933  1.00  0.00     0.114 C 
ENDBRANCH  52  54
ENDBRANCH  51  52
BRANCH  51  57
ATOM     57  C   UNL     1      -3.888  36.976  16.980  1.00  0.00     0.191 C 
BRANCH  57  58
ATOM     58  O   UNL     1      -4.974  36.205  17.489  1.00  0.00    -0.394 OA
ATOM     59  H   UNL     1      -4.697  35.269  17.399  1.00  0.00     0.210 HD
ENDBRANCH  57  58
ENDBRANCH  51  57
ENDBRANCH  48  51
ENDBRANCH  45  47
ENDBRANCH  42  45
ENDBRANCH  40  41
ENDBRANCH  38  40
ENDBRANCH   1  38
TORSDOF 15
ENDMDL
MODEL 7
REMARK VINA RESULT:    -9.766      3.153      6.758
REMARK INTER + INTRA:         -15.877
REMARK INTER:                 -12.265
REMARK INTRA:                  -3.612
REMARK UNBOUND:                 5.307
REMARK SMILES CC(=O)N(C)[C@H](CO)C(=O)N[C@H](C)C(=O)NCC(=O)N(C)[C@@H]1C(=O)N[C@@H](C)C(=O)N[C@H](C(=O)O)Cc2ccc(O)c(c2)-c2cc1ccc2O
REMARK SMILES IDX 20 1 21 2 22 3 23 4 24 5 25 6 26 8 27 9 45 11 44 12 46 13
REMARK SMILES IDX 43 14 47 15 48 16 41 17 42 18 39 19 36 20 38 21 37 22 40 23
REMARK SMILES IDX 35 25 31 26 30 27 28 28 29 30 32 32 33 33 34 34 49 36 18 38
REMARK SMILES IDX 19 39 17 40 16 41 14 42 15 44 12 45 13 46 11 47 9 48 10 50
REMARK SMILES IDX 6 51 4 52 5 53 2 54 3 55 1 56 7 57 8 58
REMARK H PARENT 25 7 40 24 30 29 34 35 49 37 16 43 11 49 8 59
REMARK Flexibility Score: 80.00
ROOT
ATOM      1  N   UNL     1       5.373  31.173  16.757  1.00  0.00    -0.328 N 
ATOM      2  C   UNL     1       5.639  31.988  17.883  1.00  0.00     0.148 C 
ENDROOT
BRANCH   1   3
ATOM      3  C   UNL     1       5.619  29.754  16.860  1.00  0.00     0.204 C 
BRANCH   3   4
ATOM      4  C   UNL     1       5.495  28.832  15.702  1.00  0.00     0.248 C 
ATOM      5  O   UNL     1       6.488  28.412  15.118  1.00  0.00    -0.272 OA
ATOM      6  N   UNL     1       4.331  28.407  15.302  1.00  0.00    -0.342 N 
ATOM      7  H   UNL     1       3.661  29.050  15.385  1.00  0.00     0.164 HD
BRANCH   6   8
ATOM      8  C   UNL     1       3.870  27.144  14.864  1.00  0.00     0.168 CG0
ATOM      9  C   UNL     1       3.860  26.083  16.007  1.00  0.00     0.041 C 
ATOM     10  G   UNL     1       2.550  27.265  14.222  1.00  0.00     0.000 G0
ENDBRANCH   6   8
ENDBRANCH   3   4
BRANCH   3  11
ATOM     11  C   UNL     1       4.832  29.149  17.991  1.00  0.00    -0.015 A 
ATOM     12  C   UNL     1       3.439  29.378  18.089  1.00  0.00     0.019 A 
ATOM     13  C   UNL     1       5.415  28.286  18.946  1.00  0.00     0.010 A 
ATOM     14  C   UNL     1       2.616  28.639  18.964  1.00  0.00     0.028 A 
ATOM     15  C   UNL     1       4.626  27.626  19.907  1.00  0.00     0.047 A 
ATOM     16  C   UNL     1       3.225  27.778  19.905  1.00  0.00     0.123 A 
BRANCH  14  17
ATOM     17  C   UNL     1       1.224  28.720  18.715  1.00  0.00     0.027 A 
ATOM     18  C   UNL     1       0.785  28.245  17.458  1.00  0.00     0.016 A 
ATOM     19  C   UNL     1       0.293  29.365  19.562  1.00  0.00     0.123 A 
ATOM     20  C   UNL     1      -0.510  28.511  16.962  1.00  0.00    -0.044 A 
ATOM     21  C   UNL     1      -1.030  29.564  19.118  1.00  0.00     0.047 A 
ATOM     22  C   UNL     1      -1.420  29.160  17.826  1.00  0.00     0.007 A 
BRANCH  19  23
ATOM     23  O   UNL     1       0.637  29.787  20.696  1.00  0.00    -0.507 OA
ATOM     24  H   UNL     1       0.344  30.561  20.998  1.00  0.00     0.293 HD
ENDBRANCH  19  23
BRANCH  20  25
ATOM     25  C   UNL     1      -0.860  28.134  15.563  1.00  0.00     0.072 C 
BRANCH  25  26
ATOM     26  C   UNL     1       0.266  28.243  14.476  1.00  0.00     0.196 C 
BRANCH  26  27
ATOM     27  N   UNL     1       1.552  27.831  14.893  1.00  0.00    -0.341 N 
ATOM     28  C   UNL     1       2.543  27.283  14.236  1.00  0.00     0.242 CG0
ATOM     29  H   UNL     1       1.736  28.004  15.794  1.00  0.00     0.164 HD
ATOM     30  O   UNL     1       2.329  26.905  13.089  1.00  0.00    -0.273 OA
ATOM     31  G   UNL     1       3.881  27.127  14.832  1.00  0.00     0.000 G0
ENDBRANCH  26  27
BRANCH  26  32
ATOM     32  C   UNL     1       0.200  29.458  13.669  1.00  0.00     0.326 C 
ATOM     33  O   UNL     1      -0.831  30.072  13.442  1.00  0.00    -0.250 OA
BRANCH  32  34
ATOM     34  O   UNL     1       1.206  29.967  13.185  1.00  0.00    -0.480 OA
ATOM     35  H   UNL     1       1.148  30.564  12.541  1.00  0.00     0.296 HD
ENDBRANCH  32  34
ENDBRANCH  26  32
ENDBRANCH  25  26
ENDBRANCH  20  25
ENDBRANCH  14  17
BRANCH  16  36
ATOM     36  O   UNL     1       2.533  27.120  20.724  1.00  0.00    -0.507 OA
ATOM     37  H   UNL     1       2.438  26.249  20.635  1.00  0.00     0.293 HD
ENDBRANCH  16  36
ENDBRANCH   3  11
ENDBRANCH   1   3
BRANCH   1  38
ATOM     38  C   UNL     1       4.889  31.704  15.618  1.00  0.00     0.242 C 
ATOM     39  O   UNL     1       5.678  32.151  14.790  1.00  0.00    -0.273 OA
BRANCH  38  40
ATOM     40  C   UNL     1       3.495  31.859  15.190  1.00  0.00     0.216 C 
BRANCH  40  41
ATOM     41  N   UNL     1       3.127  33.198  15.129  1.00  0.00    -0.345 N 
ATOM     42  C   UNL     1       2.023  33.840  15.364  1.00  0.00     0.242 C 
ATOM     43  H   UNL     1       3.826  33.741  14.820  1.00  0.00     0.164 HD
ATOM     44  O   UNL     1       2.166  35.007  15.019  1.00  0.00    -0.273 OA
BRANCH  42  45
ATOM     45  C   UNL     1       0.713  33.402  15.874  1.00  0.00     0.168 C 
ATOM     46  C   UNL     1       0.711  32.313  16.981  1.00  0.00     0.041 C 
BRANCH  45  47
ATOM     47  N   UNL     1       0.050  34.466  16.501  1.00  0.00    -0.343 N 
ATOM     48  C   UNL     1      -1.120  35.021  16.408  1.00  0.00     0.245 C 
ATOM     49  H   UNL     1       0.601  34.884  17.133  1.00  0.00     0.164 HD
ATOM     50  O   UNL     1      -1.182  35.940  17.215  1.00  0.00    -0.273 OA
BRANCH  48  51
ATOM     51  C   UNL     1      -2.298  34.807  15.561  1.00  0.00     0.199 C 
BRANCH  51  52
ATOM     52  N   UNL     1      -3.262  33.971  16.220  1.00  0.00    -0.332 N 
ATOM     53  C   UNL     1      -4.452  34.571  16.711  1.00  0.00     0.147 C 
BRANCH  52  54
ATOM     54  C   UNL     1      -3.042  32.677  16.405  1.00  0.00     0.219 C 
ATOM     55  O   UNL     1      -2.500  32.289  17.434  1.00  0.00    -0.275 OA
ATOM     56  C   UNL     1      -3.350  31.617  15.460  1.00  0.00     0.114 C 
ENDBRANCH  52  54
ENDBRANCH  51  52
BRANCH  51  57
ATOM     57  C   UNL     1      -2.115  34.477  14.046  1.00  0.00     0.191 C 
BRANCH  57  58
ATOM     58  O   UNL     1      -2.102  35.673  13.270  1.00  0.00    -0.394 OA
ATOM     59  H   UNL     1      -1.273  36.137  13.515  1.00  0.00     0.210 HD
ENDBRANCH  57  58
ENDBRANCH  51  57
ENDBRANCH  48  51
ENDBRANCH  45  47
ENDBRANCH  42  45
ENDBRANCH  40  41
ENDBRANCH  38  40
ENDBRANCH   1  38
TORSDOF 15
ENDMDL
MODEL 8
REMARK VINA RESULT:    -9.762     10.815     18.235
REMARK INTER + INTRA:         -15.869
REMARK INTER:                 -13.415
REMARK INTRA:                  -2.454
REMARK UNBOUND:                 5.307
REMARK SMILES CC(=O)N(C)[C@H](CO)C(=O)N[C@H](C)C(=O)NCC(=O)N(C)[C@@H]1C(=O)N[C@@H](C)C(=O)N[C@H](C(=O)O)Cc2ccc(O)c(c2)-c2cc1ccc2O
REMARK SMILES IDX 20 1 21 2 22 3 23 4 24 5 25 6 26 8 27 9 45 11 44 12 46 13
REMARK SMILES IDX 43 14 47 15 48 16 41 17 42 18 39 19 36 20 38 21 37 22 40 23
REMARK SMILES IDX 35 25 31 26 30 27 28 28 29 30 32 32 33 33 34 34 49 36 18 38
REMARK SMILES IDX 19 39 17 40 16 41 14 42 15 44 12 45 13 46 11 47 9 48 10 50
REMARK SMILES IDX 6 51 4 52 5 53 2 54 3 55 1 56 7 57 8 58
REMARK H PARENT 25 7 40 24 30 29 34 35 49 37 16 43 11 49 8 59
REMARK Flexibility Score: 80.00
ROOT
ATOM      1  N   UNL     1      -1.083  46.481   8.485  1.00  0.00    -0.328 N 
ATOM      2  C   UNL     1       0.007  47.177   9.062  1.00  0.00     0.148 C 
ENDROOT
BRANCH   1   3
ATOM      3  C   UNL     1      -1.664  46.998   7.268  1.00  0.00     0.204 C 
BRANCH   3   4
ATOM      4  C   UNL     1      -1.054  46.780   5.931  1.00  0.00     0.248 C 
ATOM      5  O   UNL     1       0.124  46.458   5.817  1.00  0.00    -0.272 OA
ATOM      6  N   UNL     1      -1.764  46.881   4.844  1.00  0.00    -0.342 N 
ATOM      7  H   UNL     1      -2.411  47.549   4.893  1.00  0.00     0.164 HD
BRANCH   6   8
ATOM      8  C   UNL     1      -1.809  46.117   3.655  1.00  0.00     0.168 CG0
ATOM      9  C   UNL     1      -3.241  45.584   3.342  1.00  0.00     0.041 C 
ATOM     10  G   UNL     1      -1.254  46.881   2.524  1.00  0.00     0.000 G0
ENDBRANCH   6   8
ENDBRANCH   3   4
BRANCH   3  11
ATOM     11  C   UNL     1      -1.948  48.471   7.387  1.00  0.00    -0.015 A 
ATOM     12  C   UNL     1      -1.290  49.391   6.537  1.00  0.00     0.019 A 
ATOM     13  C   UNL     1      -2.912  48.990   8.280  1.00  0.00     0.010 A 
ATOM     14  C   UNL     1      -1.700  50.737   6.425  1.00  0.00     0.028 A 
ATOM     15  C   UNL     1      -3.254  50.355   8.268  1.00  0.00     0.047 A 
ATOM     16  C   UNL     1      -2.671  51.228   7.327  1.00  0.00     0.123 A 
BRANCH  14  17
ATOM     17  C   UNL     1      -1.196  51.443   5.306  1.00  0.00     0.027 A 
ATOM     18  C   UNL     1      -1.334  50.805   4.051  1.00  0.00     0.016 A 
ATOM     19  C   UNL     1      -0.453  52.644   5.381  1.00  0.00     0.123 A 
ATOM     20  C   UNL     1      -0.645  51.247   2.901  1.00  0.00    -0.044 A 
ATOM     21  C   UNL     1       0.172  53.149   4.223  1.00  0.00     0.047 A 
ATOM     22  C   UNL     1       0.094  52.448   3.004  1.00  0.00     0.007 A 
BRANCH  19  23
ATOM     23  O   UNL     1      -0.322  53.253   6.474  1.00  0.00    -0.507 OA
ATOM     24  H   UNL     1      -0.506  52.854   7.238  1.00  0.00     0.293 HD
ENDBRANCH  19  23
BRANCH  20  25
ATOM     25  C   UNL     1      -0.693  50.438   1.651  1.00  0.00     0.072 C 
BRANCH  25  26
ATOM     26  C   UNL     1      -0.175  48.960   1.720  1.00  0.00     0.196 C 
BRANCH  26  27
ATOM     27  N   UNL     1      -0.882  48.111   2.602  1.00  0.00    -0.341 N 
ATOM     28  C   UNL     1      -1.248  46.859   2.495  1.00  0.00     0.242 CG0
ATOM     29  H   UNL     1      -1.105  48.509   3.419  1.00  0.00     0.164 HD
ATOM     30  O   UNL     1      -1.109  46.314   1.405  1.00  0.00    -0.273 OA
ATOM     31  G   UNL     1      -1.800  46.108   3.636  1.00  0.00     0.000 G0
ENDBRANCH  26  27
BRANCH  26  32
ATOM     32  C   UNL     1       1.280  48.837   1.724  1.00  0.00     0.326 C 
ATOM     33  O   UNL     1       2.009  49.328   0.875  1.00  0.00    -0.250 OA
BRANCH  32  34
ATOM     34  O   UNL     1       1.876  48.244   2.618  1.00  0.00    -0.480 OA
ATOM     35  H   UNL     1       1.893  48.561   3.439  1.00  0.00     0.296 HD
ENDBRANCH  32  34
ENDBRANCH  26  32
ENDBRANCH  25  26
ENDBRANCH  20  25
ENDBRANCH  14  17
BRANCH  16  36
ATOM     36  O   UNL     1      -3.047  52.427   7.285  1.00  0.00    -0.507 OA
ATOM     37  H   UNL     1      -2.934  52.958   7.979  1.00  0.00     0.293 HD
ENDBRANCH  16  36
ENDBRANCH   3  11
ENDBRANCH   1   3
BRANCH   1  38
ATOM     38  C   UNL     1      -1.559  45.355   9.048  1.00  0.00     0.242 C 
ATOM     39  O   UNL     1      -2.772  45.164   9.058  1.00  0.00    -0.273 OA
BRANCH  38  40
ATOM     40  C   UNL     1      -0.826  44.267   9.701  1.00  0.00     0.216 C 
BRANCH  40  41
ATOM     41  N   UNL     1      -0.106  43.513   8.782  1.00  0.00    -0.345 N 
ATOM     42  C   UNL     1      -0.021  42.243   8.527  1.00  0.00     0.242 C 
ATOM     43  H   UNL     1       0.462  44.046   8.259  1.00  0.00     0.164 HD
ATOM     44  O   UNL     1       0.875  42.065   7.711  1.00  0.00    -0.273 OA
BRANCH  42  45
ATOM     45  C   UNL     1      -0.730  41.074   9.075  1.00  0.00     0.168 C 
ATOM     46  C   UNL     1      -1.872  40.470   8.214  1.00  0.00     0.041 C 
BRANCH  45  47
ATOM     47  N   UNL     1       0.146  39.990   9.214  1.00  0.00    -0.343 N 
ATOM     48  C   UNL     1       0.611  39.286  10.201  1.00  0.00     0.245 C 
ATOM     49  H   UNL     1       0.488  39.721   8.384  1.00  0.00     0.164 HD
ATOM     50  O   UNL     1       1.362  38.430   9.751  1.00  0.00    -0.273 OA
BRANCH  48  51
ATOM     51  C   UNL     1       0.456  39.327  11.659  1.00  0.00     0.199 C 
BRANCH  51  52
ATOM     52  N   UNL     1       1.644  39.826  12.290  1.00  0.00    -0.332 N 
ATOM     53  C   UNL     1       2.674  38.904  12.616  1.00  0.00     0.147 C 
BRANCH  52  54
ATOM     54  C   UNL     1       1.775  41.109  12.600  1.00  0.00     0.219 C 
ATOM     55  O   UNL     1       1.629  41.477  13.761  1.00  0.00    -0.275 OA
ATOM     56  C   UNL     1       2.045  42.188  11.665  1.00  0.00     0.114 C 
ENDBRANCH  52  54
ENDBRANCH  51  52
BRANCH  51  57
ATOM     57  C   UNL     1      -0.189  38.116  12.405  1.00  0.00     0.191 C 
BRANCH  57  58
ATOM     58  O   UNL     1      -1.040  37.381  11.529  1.00  0.00    -0.394 OA
ATOM     59  H   UNL     1      -1.193  36.519  11.971  1.00  0.00     0.210 HD
ENDBRANCH  57  58
ENDBRANCH  51  57
ENDBRANCH  48  51
ENDBRANCH  45  47
ENDBRANCH  42  45
ENDBRANCH  40  41
ENDBRANCH  38  40
ENDBRANCH   1  38
TORSDOF 15
ENDMDL
MODEL 9
REMARK VINA RESULT:    -9.752      2.862      9.287
REMARK INTER + INTRA:         -15.848
REMARK INTER:                 -13.532
REMARK INTRA:                  -2.316
REMARK UNBOUND:                 5.307
REMARK SMILES CC(=O)N(C)[C@H](CO)C(=O)N[C@H](C)C(=O)NCC(=O)N(C)[C@@H]1C(=O)N[C@@H](C)C(=O)N[C@H](C(=O)O)Cc2ccc(O)c(c2)-c2cc1ccc2O
REMARK SMILES IDX 20 1 21 2 22 3 23 4 24 5 25 6 26 8 27 9 45 11 44 12 46 13
REMARK SMILES IDX 43 14 47 15 48 16 41 17 42 18 39 19 36 20 38 21 37 22 40 23
REMARK SMILES IDX 35 25 31 26 30 27 28 28 29 30 32 32 33 33 34 34 49 36 18 38
REMARK SMILES IDX 19 39 17 40 16 41 14 42 15 44 12 45 13 46 11 47 9 48 10 50
REMARK SMILES IDX 6 51 4 52 5 53 2 54 3 55 1 56 7 57 8 58
REMARK H PARENT 25 7 40 24 30 29 34 35 49 37 16 43 11 49 8 59
REMARK Flexibility Score: 80.00
ROOT
ATOM      1  N   UNL     1       1.851  32.447  14.723  1.00  0.00    -0.328 N 
ATOM      2  C   UNL     1       2.396  31.867  13.553  1.00  0.00     0.148 C 
ENDROOT
BRANCH   1   3
ATOM      3  C   UNL     1       0.461  32.838  14.715  1.00  0.00     0.204 C 
BRANCH   3   4
ATOM      4  C   UNL     1      -0.410  32.681  13.522  1.00  0.00     0.248 C 
ATOM      5  O   UNL     1      -1.308  31.845  13.500  1.00  0.00    -0.272 OA
ATOM      6  N   UNL     1      -0.275  33.454  12.484  1.00  0.00    -0.342 N 
ATOM      7  H   UNL     1       0.612  33.683  12.313  1.00  0.00     0.164 HD
BRANCH   6   8
ATOM      8  C   UNL     1      -1.209  34.089  11.633  1.00  0.00     0.168 CG0
ATOM      9  C   UNL     1      -2.366  34.774  12.423  1.00  0.00     0.041 C 
ATOM     10  G   UNL     1      -0.533  35.034  10.728  1.00  0.00     0.000 G0
ENDBRANCH   6   8
ENDBRANCH   3   4
BRANCH   3  11
ATOM     11  C   UNL     1       0.293  34.253  15.198  1.00  0.00    -0.015 A 
ATOM     12  C   UNL     1       0.902  35.320  14.496  1.00  0.00     0.019 A 
ATOM     13  C   UNL     1      -0.517  34.587  16.307  1.00  0.00     0.010 A 
ATOM     14  C   UNL     1       0.574  36.669  14.746  1.00  0.00     0.028 A 
ATOM     15  C   UNL     1      -0.764  35.930  16.648  1.00  0.00     0.047 A 
ATOM     16  C   UNL     1      -0.244  36.975  15.857  1.00  0.00     0.123 A 
BRANCH  14  17
ATOM     17  C   UNL     1       0.982  37.596  13.756  1.00  0.00     0.027 A 
ATOM     18  C   UNL     1       0.080  37.806  12.687  1.00  0.00     0.016 A 
ATOM     19  C   UNL     1       2.262  38.194  13.695  1.00  0.00     0.123 A 
ATOM     20  C   UNL     1       0.459  38.475  11.503  1.00  0.00    -0.044 A 
ATOM     21  C   UNL     1       2.628  38.940  12.556  1.00  0.00     0.047 A 
ATOM     22  C   UNL     1       1.744  39.061  11.465  1.00  0.00     0.007 A 
BRANCH  19  23
ATOM     23  O   UNL     1       3.088  38.048  14.633  1.00  0.00    -0.507 OA
ATOM     24  H   UNL     1       2.993  38.488  15.390  1.00  0.00     0.293 HD
ENDBRANCH  19  23
BRANCH  20  25
ATOM     25  C   UNL     1      -0.477  38.518  10.344  1.00  0.00     0.072 C 
BRANCH  25  26
ATOM     26  C   UNL     1      -0.653  37.206   9.502  1.00  0.00     0.196 C 
BRANCH  26  27
ATOM     27  N   UNL     1      -1.136  36.087  10.217  1.00  0.00    -0.341 N 
ATOM     28  C   UNL     1      -0.519  35.054  10.732  1.00  0.00     0.242 CG0
ATOM     29  H   UNL     1      -2.059  36.102  10.372  1.00  0.00     0.164 HD
ATOM     30  O   UNL     1       0.666  34.899  10.455  1.00  0.00    -0.273 OA
ATOM     31  G   UNL     1      -1.203  34.104  11.625  1.00  0.00     0.000 G0
ENDBRANCH  26  27
BRANCH  26  32
ATOM     32  C   UNL     1       0.429  36.956   8.554  1.00  0.00     0.326 C 
ATOM     33  O   UNL     1       0.278  36.403   7.475  1.00  0.00    -0.250 OA
BRANCH  32  34
ATOM     34  O   UNL     1       1.579  37.323   8.775  1.00  0.00    -0.480 OA
ATOM     35  H   UNL     1       2.079  37.660   8.133  1.00  0.00     0.296 HD
ENDBRANCH  32  34
ENDBRANCH  26  32
ENDBRANCH  25  26
ENDBRANCH  20  25
ENDBRANCH  14  17
BRANCH  16  36
ATOM     36  O   UNL     1      -0.540  38.164  16.137  1.00  0.00    -0.507 OA
ATOM     37  H   UNL     1      -1.260  38.349  16.609  1.00  0.00     0.293 HD
ENDBRANCH  16  36
ENDBRANCH   3  11
ENDBRANCH   1   3
BRANCH   1  38
ATOM     38  C   UNL     1       2.605  32.618  15.825  1.00  0.00     0.242 C 
ATOM     39  O   UNL     1       3.471  33.488  15.821  1.00  0.00    -0.273 OA
BRANCH  38  40
ATOM     40  C   UNL     1       2.568  31.884  17.094  1.00  0.00     0.216 C 
BRANCH  40  41
ATOM     41  N   UNL     1       3.841  31.736  17.633  1.00  0.00    -0.345 N 
ATOM     42  C   UNL     1       4.811  30.896  17.435  1.00  0.00     0.242 C 
ATOM     43  H   UNL     1       4.011  32.365  18.308  1.00  0.00     0.164 HD
ATOM     44  O   UNL     1       5.682  31.098  18.274  1.00  0.00    -0.273 OA
BRANCH  42  45
ATOM     45  C   UNL     1       4.981  29.787  16.482  1.00  0.00     0.168 C 
ATOM     46  C   UNL     1       5.505  30.145  15.065  1.00  0.00     0.041 C 
BRANCH  45  47
ATOM     47  N   UNL     1       5.954  28.890  16.943  1.00  0.00    -0.343 N 
ATOM     48  C   UNL     1       6.018  27.973  17.860  1.00  0.00     0.245 C 
ATOM     49  H   UNL     1       6.760  28.993  16.477  1.00  0.00     0.164 HD
ATOM     50  O   UNL     1       7.134  27.472  17.835  1.00  0.00    -0.273 OA
BRANCH  48  51
ATOM     51  C   UNL     1       5.092  27.471  18.881  1.00  0.00     0.199 C 
BRANCH  51  52
ATOM     52  N   UNL     1       3.868  27.013  18.287  1.00  0.00    -0.332 N 
ATOM     53  C   UNL     1       3.944  26.171  17.146  1.00  0.00     0.147 C 
BRANCH  52  54
ATOM     54  C   UNL     1       2.688  27.390  18.760  1.00  0.00     0.219 C 
ATOM     55  O   UNL     1       2.124  26.713  19.612  1.00  0.00    -0.275 OA
ATOM     56  C   UNL     1       1.930  28.553  18.329  1.00  0.00     0.114 C 
ENDBRANCH  52  54
ENDBRANCH  51  52
BRANCH  51  57
ATOM     57  C   UNL     1       4.885  28.274  20.204  1.00  0.00     0.191 C 
BRANCH  57  58
ATOM     58  O   UNL     1       6.111  28.862  20.631  1.00  0.00    -0.394 OA
ATOM     59  H   UNL     1       6.082  28.849  21.612  1.00  0.00     0.210 HD
ENDBRANCH  57  58
ENDBRANCH  51  57
ENDBRANCH  48  51
ENDBRANCH  45  47
ENDBRANCH  42  45
ENDBRANCH  40  41
ENDBRANCH  38  40
ENDBRANCH   1  38
TORSDOF 15
ENDMDL
MODEL 10
REMARK VINA RESULT:    -9.744      2.619      8.654
REMARK INTER + INTRA:         -15.829
REMARK INTER:                 -13.055
REMARK INTRA:                  -2.773
REMARK UNBOUND:                 5.307
REMARK SMILES CC(=O)N(C)[C@H](CO)C(=O)N[C@H](C)C(=O)NCC(=O)N(C)[C@@H]1C(=O)N[C@@H](C)C(=O)N[C@H](C(=O)O)Cc2ccc(O)c(c2)-c2cc1ccc2O
REMARK SMILES IDX 20 1 21 2 22 3 23 4 24 5 25 6 26 8 27 9 45 11 44 12 46 13
REMARK SMILES IDX 43 14 47 15 48 16 41 17 42 18 39 19 36 20 38 21 37 22 40 23
REMARK SMILES IDX 35 25 31 26 30 27 28 28 29 30 32 32 33 33 34 34 49 36 18 38
REMARK SMILES IDX 19 39 17 40 16 41 14 42 15 44 12 45 13 46 11 47 9 48 10 50
REMARK SMILES IDX 6 51 4 52 5 53 2 54 3 55 1 56 7 57 8 58
REMARK H PARENT 25 7 40 24 30 29 34 35 49 37 16 43 11 49 8 59
REMARK Flexibility Score: 80.00
ROOT
ATOM      1  N   UNL     1       0.442  30.323  16.694  1.00  0.00    -0.328 N 
ATOM      2  C   UNL     1      -0.390  29.423  17.402  1.00  0.00     0.148 C 
ENDROOT
BRANCH   1   3
ATOM      3  C   UNL     1       0.210  30.510  15.281  1.00  0.00     0.204 C 
BRANCH   3   4
ATOM      4  C   UNL     1       1.160  31.238  14.401  1.00  0.00     0.248 C 
ATOM      5  O   UNL     1       1.805  30.647  13.541  1.00  0.00    -0.272 OA
ATOM      6  N   UNL     1       1.304  32.529  14.488  1.00  0.00    -0.342 N 
ATOM      7  H   UNL     1       1.234  32.845  15.362  1.00  0.00     0.164 HD
BRANCH   6   8
ATOM      8  C   UNL     1       1.444  33.545  13.514  1.00  0.00     0.168 CG0
ATOM      9  C   UNL     1       0.331  33.484  12.423  1.00  0.00     0.041 C 
ATOM     10  G   UNL     1       1.510  34.872  14.152  1.00  0.00     0.000 G0
ENDBRANCH   6   8
ENDBRANCH   3   4
BRANCH   3  11
ATOM     11  C   UNL     1      -1.155  31.090  15.028  1.00  0.00    -0.015 A 
ATOM     12  C   UNL     1      -1.527  32.317  15.626  1.00  0.00     0.019 A 
ATOM     13  C   UNL     1      -2.085  30.490  14.149  1.00  0.00     0.010 A 
ATOM     14  C   UNL     1      -2.678  33.029  15.228  1.00  0.00     0.028 A 
ATOM     15  C   UNL     1      -3.297  31.129  13.827  1.00  0.00     0.047 A 
ATOM     16  C   UNL     1      -3.588  32.409  14.341  1.00  0.00     0.123 A 
BRANCH  14  17
ATOM     17  C   UNL     1      -2.742  34.381  15.647  1.00  0.00     0.027 A 
ATOM     18  C   UNL     1      -1.610  35.178  15.357  1.00  0.00     0.016 A 
ATOM     19  C   UNL     1      -3.774  34.927  16.444  1.00  0.00     0.123 A 
ATOM     20  C   UNL     1      -1.412  36.446  15.946  1.00  0.00    -0.044 A 
ATOM     21  C   UNL     1      -3.633  36.226  16.971  1.00  0.00     0.047 A 
ATOM     22  C   UNL     1      -2.457  36.967  16.742  1.00  0.00     0.007 A 
BRANCH  19  23
ATOM     23  O   UNL     1      -4.806  34.258  16.710  1.00  0.00    -0.507 OA
ATOM     24  H   UNL     1      -5.586  34.654  16.817  1.00  0.00     0.293 HD
ENDBRANCH  19  23
BRANCH  20  25
ATOM     25  C   UNL     1      -0.124  37.166  15.739  1.00  0.00     0.072 C 
BRANCH  25  26
ATOM     26  C   UNL     1       0.493  37.154  14.298  1.00  0.00     0.196 C 
BRANCH  26  27
ATOM     27  N   UNL     1       0.733  35.872  13.752  1.00  0.00    -0.341 N 
ATOM     28  C   UNL     1       1.508  34.893  14.144  1.00  0.00     0.242 CG0
ATOM     29  H   UNL     1       0.227  35.681  12.989  1.00  0.00     0.164 HD
ATOM     30  O   UNL     1       2.297  35.118  15.055  1.00  0.00    -0.273 OA
ATOM     31  G   UNL     1       1.442  33.555  13.532  1.00  0.00     0.000 G0
ENDBRANCH  26  27
BRANCH  26  32
ATOM     32  C   UNL     1       1.533  38.157  14.085  1.00  0.00     0.326 C 
ATOM     33  O   UNL     1       1.310  39.315  13.765  1.00  0.00    -0.250 OA
BRANCH  32  34
ATOM     34  O   UNL     1       2.722  37.900  14.250  1.00  0.00    -0.480 OA
ATOM     35  H   UNL     1       3.223  37.623  13.581  1.00  0.00     0.296 HD
ENDBRANCH  32  34
ENDBRANCH  26  32
ENDBRANCH  25  26
ENDBRANCH  20  25
ENDBRANCH  14  17
BRANCH  16  36
ATOM     36  O   UNL     1      -4.641  32.993  13.981  1.00  0.00    -0.507 OA
ATOM     37  H   UNL     1      -5.207  33.309  14.577  1.00  0.00     0.293 HD
ENDBRANCH  16  36
ENDBRANCH   3  11
ENDBRANCH   1   3
BRANCH   1  38
ATOM     38  C   UNL     1       1.420  31.001  17.324  1.00  0.00     0.242 C 
ATOM     39  O   UNL     1       1.404  32.228  17.295  1.00  0.00    -0.273 OA
BRANCH  38  40
ATOM     40  C   UNL     1       2.573  30.483  18.066  1.00  0.00     0.216 C 
BRANCH  40  41
ATOM     41  N   UNL     1       3.761  31.054  17.626  1.00  0.00    -0.345 N 
ATOM     42  C   UNL     1       4.760  30.622  16.917  1.00  0.00     0.242 C 
ATOM     43  H   UNL     1       3.867  31.931  17.941  1.00  0.00     0.164 HD
ATOM     44  O   UNL     1       5.645  31.470  16.929  1.00  0.00    -0.273 OA
BRANCH  42  45
ATOM     45  C   UNL     1       5.001  29.348  16.219  1.00  0.00     0.168 C 
ATOM     46  C   UNL     1       5.411  29.426  14.724  1.00  0.00     0.041 C 
BRANCH  45  47
ATOM     47  N   UNL     1       6.086  28.672  16.793  1.00  0.00    -0.343 N 
ATOM     48  C   UNL     1       6.306  28.033  17.902  1.00  0.00     0.245 C 
ATOM     49  H   UNL     1       6.840  28.708  16.239  1.00  0.00     0.164 HD
ATOM     50  O   UNL     1       7.460  27.623  17.894  1.00  0.00    -0.273 OA
BRANCH  48  51
ATOM     51  C   UNL     1       5.514  27.749  19.103  1.00  0.00     0.199 C 
BRANCH  51  52
ATOM     52  N   UNL     1       4.354  26.966  18.783  1.00  0.00    -0.332 N 
ATOM     53  C   UNL     1       3.083  27.599  18.809  1.00  0.00     0.147 C 
BRANCH  52  54
ATOM     54  C   UNL     1       4.449  25.673  18.504  1.00  0.00     0.219 C 
ATOM     55  O   UNL     1       4.254  25.277  17.360  1.00  0.00    -0.275 OA
ATOM     56  C   UNL     1       4.733  24.615  19.459  1.00  0.00     0.114 C 
ENDBRANCH  52  54
ENDBRANCH  51  52
BRANCH  51  57
ATOM     57  C   UNL     1       5.236  28.887  20.136  1.00  0.00     0.191 C 
BRANCH  57  58
ATOM     58  O   UNL     1       6.044  30.028  19.855  1.00  0.00    -0.394 OA
ATOM     59  H   UNL     1       6.196  30.010  18.887  1.00  0.00     0.210 HD
ENDBRANCH  57  58
ENDBRANCH  51  57
ENDBRANCH  48  51
ENDBRANCH  45  47
ENDBRANCH  42  45
ENDBRANCH  40  41
ENDBRANCH  38  40
ENDBRANCH   1  38
TORSDOF 15
ENDMDL
MODEL 11
REMARK VINA RESULT:    -9.665      3.137      8.960
REMARK INTER + INTRA:         -15.659
REMARK INTER:                 -13.139
REMARK INTRA:                  -2.520
REMARK UNBOUND:                 5.307
REMARK SMILES CC(=O)N(C)[C@H](CO)C(=O)N[C@H](C)C(=O)NCC(=O)N(C)[C@@H]1C(=O)N[C@@H](C)C(=O)N[C@H](C(=O)O)Cc2ccc(O)c(c2)-c2cc1ccc2O
REMARK SMILES IDX 20 1 21 2 22 3 23 4 24 5 25 6 26 8 27 9 45 11 44 12 46 13
REMARK SMILES IDX 43 14 47 15 48 16 41 17 42 18 39 19 36 20 38 21 37 22 40 23
REMARK SMILES IDX 35 25 31 26 30 27 28 28 29 30 32 32 33 33 34 34 49 36 18 38
REMARK SMILES IDX 19 39 17 40 16 41 14 42 15 44 12 45 13 46 11 47 9 48 10 50
REMARK SMILES IDX 6 51 4 52 5 53 2 54 3 55 1 56 7 57 8 58
REMARK H PARENT 25 7 40 24 30 29 34 35 49 37 16 43 11 49 8 59
REMARK Flexibility Score: 80.00
ROOT
ATOM      1  N   UNL     1      -1.705  31.327  16.332  1.00  0.00    -0.328 N 
ATOM      2  C   UNL     1      -1.425  30.724  15.082  1.00  0.00     0.148 C 
ENDROOT
BRANCH   1   3
ATOM      3  C   UNL     1      -2.683  32.387  16.382  1.00  0.00     0.204 C 
BRANCH   3   4
ATOM      4  C   UNL     1      -3.664  32.627  15.292  1.00  0.00     0.248 C 
ATOM      5  O   UNL     1      -4.810  32.197  15.365  1.00  0.00    -0.272 OA
ATOM      6  N   UNL     1      -3.348  33.337  14.247  1.00  0.00    -0.342 N 
ATOM      7  H   UNL     1      -2.463  33.219  13.981  1.00  0.00     0.164 HD
BRANCH   6   8
ATOM      8  C   UNL     1      -4.049  34.317  13.507  1.00  0.00     0.168 CG0
ATOM      9  C   UNL     1      -4.485  35.530  14.385  1.00  0.00     0.041 C 
ATOM     10  G   UNL     1      -3.265  34.746  12.336  1.00  0.00     0.000 G0
ENDBRANCH   6   8
ENDBRANCH   3   4
BRANCH   3  11
ATOM     11  C   UNL     1      -2.034  33.710  16.688  1.00  0.00    -0.015 A 
ATOM     12  C   UNL     1      -1.125  34.284  15.768  1.00  0.00     0.019 A 
ATOM     13  C   UNL     1      -2.344  34.459  17.845  1.00  0.00     0.010 A 
ATOM     14  C   UNL     1      -0.690  35.622  15.877  1.00  0.00     0.028 A 
ATOM     15  C   UNL     1      -1.826  35.754  18.033  1.00  0.00     0.047 A 
ATOM     16  C   UNL     1      -1.020  36.351  17.042  1.00  0.00     0.123 A 
BRANCH  14  17
ATOM     17  C   UNL     1      -0.075  36.166  14.722  1.00  0.00     0.027 A 
ATOM     18  C   UNL     1      -0.935  36.809  13.802  1.00  0.00     0.016 A 
ATOM     19  C   UNL     1       1.282  35.980  14.372  1.00  0.00     0.123 A 
ATOM     20  C   UNL     1      -0.520  37.148  12.495  1.00  0.00    -0.044 A 
ATOM     21  C   UNL     1       1.735  36.391  13.103  1.00  0.00     0.047 A 
ATOM     22  C   UNL     1       0.840  36.949  12.169  1.00  0.00     0.007 A 
BRANCH  19  23
ATOM     23  O   UNL     1       2.084  35.429  15.170  1.00  0.00    -0.507 OA
ATOM     24  H   UNL     1       2.259  34.567  15.110  1.00  0.00     0.293 HD
ENDBRANCH  19  23
BRANCH  20  25
ATOM     25  C   UNL     1      -1.514  37.667  11.514  1.00  0.00     0.072 C 
BRANCH  25  26
ATOM     26  C   UNL     1      -2.543  36.648  10.911  1.00  0.00     0.196 C 
BRANCH  26  27
ATOM     27  N   UNL     1      -3.337  35.959  11.856  1.00  0.00    -0.341 N 
ATOM     28  C   UNL     1      -3.242  34.752  12.354  1.00  0.00     0.242 CG0
ATOM     29  H   UNL     1      -4.041  36.466  12.206  1.00  0.00     0.164 HD
ATOM     30  O   UNL     1      -2.429  33.987  11.847  1.00  0.00    -0.273 OA
ATOM     31  G   UNL     1      -4.066  34.312  13.492  1.00  0.00     0.000 G0
ENDBRANCH  26  27
BRANCH  26  32
ATOM     32  C   UNL     1      -2.019  35.858   9.800  1.00  0.00     0.326 C 
ATOM     33  O   UNL     1      -0.833  35.777   9.519  1.00  0.00    -0.250 OA
BRANCH  32  34
ATOM     34  O   UNL     1      -2.754  35.187   9.082  1.00  0.00    -0.480 OA
ATOM     35  H   UNL     1      -2.785  34.310   9.158  1.00  0.00     0.296 HD
ENDBRANCH  32  34
ENDBRANCH  26  32
ENDBRANCH  25  26
ENDBRANCH  20  25
ENDBRANCH  14  17
BRANCH  16  36
ATOM     36  O   UNL     1      -0.630  37.536  17.197  1.00  0.00    -0.507 OA
ATOM     37  H   UNL     1      -0.921  38.020  17.873  1.00  0.00     0.293 HD
ENDBRANCH  16  36
ENDBRANCH   3  11
ENDBRANCH   1   3
BRANCH   1  38
ATOM     38  C   UNL     1      -1.084  30.914  17.452  1.00  0.00     0.242 C 
ATOM     39  O   UNL     1      -1.752  30.717  18.463  1.00  0.00    -0.273 OA
BRANCH  38  40
ATOM     40  C   UNL     1       0.343  30.663  17.679  1.00  0.00     0.216 C 
BRANCH  40  41
ATOM     41  N   UNL     1       1.128  31.692  17.171  1.00  0.00    -0.345 N 
ATOM     42  C   UNL     1       2.323  31.747  16.665  1.00  0.00     0.242 C 
ATOM     43  H   UNL     1       0.705  32.525  17.245  1.00  0.00     0.164 HD
ATOM     44  O   UNL     1       2.625  32.923  16.500  1.00  0.00    -0.273 OA
BRANCH  42  45
ATOM     45  C   UNL     1       3.315  30.705  16.352  1.00  0.00     0.168 C 
ATOM     46  C   UNL     1       3.914  30.705  14.919  1.00  0.00     0.041 C 
BRANCH  45  47
ATOM     47  N   UNL     1       4.454  30.855  17.153  1.00  0.00    -0.343 N 
ATOM     48  C   UNL     1       5.236  30.063  17.821  1.00  0.00     0.245 C 
ATOM     49  H   UNL     1       4.696  31.757  17.233  1.00  0.00     0.164 HD
ATOM     50  O   UNL     1       6.109  30.735  18.357  1.00  0.00    -0.273 OA
BRANCH  48  51
ATOM     51  C   UNL     1       5.266  28.619  18.077  1.00  0.00     0.199 C 
BRANCH  51  52
ATOM     52  N   UNL     1       4.331  28.258  19.105  1.00  0.00    -0.332 N 
ATOM     53  C   UNL     1       2.974  28.048  18.739  1.00  0.00     0.147 C 
BRANCH  52  54
ATOM     54  C   UNL     1       4.703  28.157  20.373  1.00  0.00     0.219 C 
ATOM     55  O   UNL     1       4.456  27.136  21.005  1.00  0.00    -0.275 OA
ATOM     56  C   UNL     1       5.368  29.190  21.150  1.00  0.00     0.114 C 
ENDBRANCH  52  54
ENDBRANCH  51  52
BRANCH  51  57
ATOM     57  C   UNL     1       6.636  27.878  18.189  1.00  0.00     0.191 C 
BRANCH  57  58
ATOM     58  O   UNL     1       6.449  26.466  18.143  1.00  0.00    -0.394 OA
ATOM     59  H   UNL     1       7.328  26.091  17.924  1.00  0.00     0.210 HD
ENDBRANCH  57  58
ENDBRANCH  51  57
ENDBRANCH  48  51
ENDBRANCH  45  47
ENDBRANCH  42  45
ENDBRANCH  40  41
ENDBRANCH  38  40
ENDBRANCH   1  38
TORSDOF 15
ENDMDL
MODEL 12
REMARK VINA RESULT:    -9.654      1.503      2.411
REMARK INTER + INTRA:         -15.635
REMARK INTER:                 -12.210
REMARK INTRA:                  -3.425
REMARK UNBOUND:                 5.307
REMARK SMILES CC(=O)N(C)[C@H](CO)C(=O)N[C@H](C)C(=O)NCC(=O)N(C)[C@@H]1C(=O)N[C@@H](C)C(=O)N[C@H](C(=O)O)Cc2ccc(O)c(c2)-c2cc1ccc2O
REMARK SMILES IDX 20 1 21 2 22 3 23 4 24 5 25 6 26 8 27 9 45 11 44 12 46 13
REMARK SMILES IDX 43 14 47 15 48 16 41 17 42 18 39 19 36 20 38 21 37 22 40 23
REMARK SMILES IDX 35 25 31 26 30 27 28 28 29 30 32 32 33 33 34 34 49 36 18 38
REMARK SMILES IDX 19 39 17 40 16 41 14 42 15 44 12 45 13 46 11 47 9 48 10 50
REMARK SMILES IDX 6 51 4 52 5 53 2 54 3 55 1 56 7 57 8 58
REMARK H PARENT 25 7 40 24 30 29 34 35 49 37 16 43 11 49 8 59
REMARK Flexibility Score: 80.00
ROOT
ATOM      1  N   UNL     1      -2.337  31.687  14.489  1.00  0.00    -0.328 N 
ATOM      2  C   UNL     1      -2.124  32.204  13.188  1.00  0.00     0.148 C 
ENDROOT
BRANCH   1   3
ATOM      3  C   UNL     1      -1.303  30.875  15.086  1.00  0.00     0.204 C 
BRANCH   3   4
ATOM      4  C   UNL     1      -0.411  31.374  16.164  1.00  0.00     0.248 C 
ATOM      5  O   UNL     1      -0.562  32.493  16.642  1.00  0.00    -0.272 OA
ATOM      6  N   UNL     1       0.527  30.622  16.662  1.00  0.00    -0.342 N 
ATOM      7  H   UNL     1       0.925  30.068  16.027  1.00  0.00     0.164 HD
BRANCH   6   8
ATOM      8  C   UNL     1       0.987  30.412  17.983  1.00  0.00     0.168 CG0
ATOM      9  C   UNL     1       0.038  29.488  18.806  1.00  0.00     0.041 C 
ATOM     10  G   UNL     1       2.371  29.906  17.979  1.00  0.00     0.000 G0
ENDBRANCH   6   8
ENDBRANCH   3   4
BRANCH   3  11
ATOM     11  C   UNL     1      -0.420  30.263  14.033  1.00  0.00    -0.015 A 
ATOM     12  C   UNL     1       0.932  30.665  13.919  1.00  0.00     0.019 A 
ATOM     13  C   UNL     1      -0.863  29.232  13.173  1.00  0.00     0.010 A 
ATOM     14  C   UNL     1       1.865  29.954  13.135  1.00  0.00     0.028 A 
ATOM     15  C   UNL     1       0.027  28.586  12.295  1.00  0.00     0.047 A 
ATOM     16  C   UNL     1       1.395  28.923  12.289  1.00  0.00     0.123 A 
BRANCH  14  17
ATOM     17  C   UNL     1       3.228  30.247  13.382  1.00  0.00     0.027 A 
ATOM     18  C   UNL     1       3.758  29.769  14.602  1.00  0.00     0.016 A 
ATOM     19  C   UNL     1       4.027  31.092  12.576  1.00  0.00     0.123 A 
ATOM     20  C   UNL     1       4.999  30.212  15.110  1.00  0.00    -0.044 A 
ATOM     21  C   UNL     1       5.306  31.476  13.027  1.00  0.00     0.047 A 
ATOM     22  C   UNL     1       5.777  31.058  14.287  1.00  0.00     0.007 A 
BRANCH  19  23
ATOM     23  O   UNL     1       3.600  31.524  11.475  1.00  0.00    -0.507 OA
ATOM     24  H   UNL     1       3.481  32.388  11.345  1.00  0.00     0.293 HD
ENDBRANCH  19  23
BRANCH  20  25
ATOM     25  C   UNL     1       5.429  29.806  16.478  1.00  0.00     0.072 C 
BRANCH  25  26
ATOM     26  C   UNL     1       4.778  30.550  17.695  1.00  0.00     0.196 C 
BRANCH  26  27
ATOM     27  N   UNL     1       3.376  30.716  17.625  1.00  0.00    -0.341 N 
ATOM     28  C   UNL     1       2.390  29.932  17.982  1.00  0.00     0.242 CG0
ATOM     29  H   UNL     1       3.106  31.545  17.286  1.00  0.00     0.164 HD
ATOM     30  O   UNL     1       2.663  28.782  18.308  1.00  0.00    -0.273 OA
ATOM     31  G   UNL     1       0.994  30.401  18.009  1.00  0.00     0.000 G0
ENDBRANCH  26  27
BRANCH  26  32
ATOM     32  C   UNL     1       5.547  31.696  18.175  1.00  0.00     0.326 C 
ATOM     33  O   UNL     1       6.503  31.608  18.930  1.00  0.00    -0.250 OA
BRANCH  32  34
ATOM     34  O   UNL     1       5.292  32.841  17.814  1.00  0.00    -0.480 OA
ATOM     35  H   UNL     1       5.820  33.512  18.030  1.00  0.00     0.296 HD
ENDBRANCH  32  34
ENDBRANCH  26  32
ENDBRANCH  25  26
ENDBRANCH  20  25
ENDBRANCH  14  17
BRANCH  16  36
ATOM     36  O   UNL     1       2.184  28.280  11.551  1.00  0.00    -0.507 OA
ATOM     37  H   UNL     1       2.562  28.665  10.855  1.00  0.00     0.293 HD
ENDBRANCH  16  36
ENDBRANCH   3  11
ENDBRANCH   1   3
BRANCH   1  38
ATOM     38  C   UNL     1      -3.471  31.957  15.163  1.00  0.00     0.242 C 
ATOM     39  O   UNL     1      -4.014  31.056  15.795  1.00  0.00    -0.273 OA
BRANCH  38  40
ATOM     40  C   UNL     1      -4.214  33.218  15.255  1.00  0.00     0.216 C 
BRANCH  40  41
ATOM     41  N   UNL     1      -3.596  34.110  16.123  1.00  0.00    -0.345 N 
ATOM     42  C   UNL     1      -2.684  35.024  15.977  1.00  0.00     0.242 C 
ATOM     43  H   UNL     1      -3.885  33.997  17.008  1.00  0.00     0.164 HD
ATOM     44  O   UNL     1      -2.368  35.442  17.085  1.00  0.00    -0.273 OA
BRANCH  42  45
ATOM     45  C   UNL     1      -1.981  35.541  14.791  1.00  0.00     0.168 C 
ATOM     46  C   UNL     1      -2.836  36.288  13.731  1.00  0.00     0.041 C 
BRANCH  45  47
ATOM     47  N   UNL     1      -1.045  36.515  15.162  1.00  0.00    -0.343 N 
ATOM     48  C   UNL     1       0.224  36.711  14.969  1.00  0.00     0.245 C 
ATOM     49  H   UNL     1      -1.439  37.180  15.692  1.00  0.00     0.164 HD
ATOM     50  O   UNL     1       0.548  37.752  15.527  1.00  0.00    -0.273 OA
BRANCH  48  51
ATOM     51  C   UNL     1       1.290  35.967  14.290  1.00  0.00     0.199 C 
BRANCH  51  52
ATOM     52  N   UNL     1       1.260  36.199  12.874  1.00  0.00    -0.332 N 
ATOM     53  C   UNL     1       0.709  35.193  12.036  1.00  0.00     0.147 C 
BRANCH  52  54
ATOM     54  C   UNL     1       1.764  37.305  12.344  1.00  0.00     0.219 C 
ATOM     55  O   UNL     1       2.878  37.692  12.678  1.00  0.00    -0.275 OA
ATOM     56  C   UNL     1       1.093  38.177  11.395  1.00  0.00     0.114 C 
ENDBRANCH  52  54
ENDBRANCH  51  52
BRANCH  51  57
ATOM     57  C   UNL     1       1.565  34.479  14.676  1.00  0.00     0.191 C 
BRANCH  57  58
ATOM     58  O   UNL     1       2.745  34.376  15.469  1.00  0.00    -0.394 OA
ATOM     59  H   UNL     1       2.883  35.267  15.854  1.00  0.00     0.210 HD
ENDBRANCH  57  58
ENDBRANCH  51  57
ENDBRANCH  48  51
ENDBRANCH  45  47
ENDBRANCH  42  45
ENDBRANCH  40  41
ENDBRANCH  38  40
ENDBRANCH   1  38
TORSDOF 15
ENDMDL
MODEL 13
REMARK VINA RESULT:    -9.631      2.753      7.759
REMARK INTER + INTRA:         -15.585
REMARK INTER:                 -10.858
REMARK INTRA:                  -4.727
REMARK UNBOUND:                 5.307
REMARK SMILES CC(=O)N(C)[C@H](CO)C(=O)N[C@H](C)C(=O)NCC(=O)N(C)[C@@H]1C(=O)N[C@@H](C)C(=O)N[C@H](C(=O)O)Cc2ccc(O)c(c2)-c2cc1ccc2O
REMARK SMILES IDX 20 1 21 2 22 3 23 4 24 5 25 6 26 8 27 9 45 11 44 12 46 13
REMARK SMILES IDX 43 14 47 15 48 16 41 17 42 18 39 19 36 20 38 21 37 22 40 23
REMARK SMILES IDX 35 25 31 26 30 27 28 28 29 30 32 32 33 33 34 34 49 36 18 38
REMARK SMILES IDX 19 39 17 40 16 41 14 42 15 44 12 45 13 46 11 47 9 48 10 50
REMARK SMILES IDX 6 51 4 52 5 53 2 54 3 55 1 56 7 57 8 58
REMARK H PARENT 25 7 40 24 30 29 34 35 49 37 16 43 11 49 8 59
REMARK Flexibility Score: 80.00
ROOT
ATOM      1  N   UNL     1       4.711  30.745  16.227  1.00  0.00    -0.328 N 
ATOM      2  C   UNL     1       5.363  31.819  16.879  1.00  0.00     0.148 C 
ENDROOT
BRANCH   1   3
ATOM      3  C   UNL     1       3.789  31.045  15.159  1.00  0.00     0.204 C 
BRANCH   3   4
ATOM      4  C   UNL     1       4.236  31.367  13.779  1.00  0.00     0.248 C 
ATOM      5  O   UNL     1       5.410  31.622  13.537  1.00  0.00    -0.272 OA
ATOM      6  N   UNL     1       3.401  31.346  12.780  1.00  0.00    -0.342 N 
ATOM      7  H   UNL     1       2.548  31.640  13.011  1.00  0.00     0.164 HD
BRANCH   6   8
ATOM      8  C   UNL     1       3.509  30.874  11.451  1.00  0.00     0.168 CG0
ATOM      9  C   UNL     1       2.994  29.410  11.294  1.00  0.00     0.041 C 
ATOM     10  G   UNL     1       2.836  31.791  10.515  1.00  0.00     0.000 G0
ENDBRANCH   6   8
ENDBRANCH   3   4
BRANCH   3  11
ATOM     11  C   UNL     1       2.816  32.117  15.568  1.00  0.00    -0.015 A 
ATOM     12  C   UNL     1       2.765  33.339  14.855  1.00  0.00     0.019 A 
ATOM     13  C   UNL     1       1.879  31.937  16.611  1.00  0.00     0.010 A 
ATOM     14  C   UNL     1       1.715  34.265  15.025  1.00  0.00     0.028 A 
ATOM     15  C   UNL     1       0.892  32.904  16.876  1.00  0.00     0.047 A 
ATOM     16  C   UNL     1       0.788  34.057  16.072  1.00  0.00     0.123 A 
BRANCH  14  17
ATOM     17  C   UNL     1       1.600  35.257  14.020  1.00  0.00     0.027 A 
ATOM     18  C   UNL     1       1.360  34.791  12.707  1.00  0.00     0.016 A 
ATOM     19  C   UNL     1       1.852  36.634  14.219  1.00  0.00     0.123 A 
ATOM     20  C   UNL     1       1.497  35.624  11.575  1.00  0.00    -0.044 A 
ATOM     21  C   UNL     1       1.907  37.499  13.107  1.00  0.00     0.047 A 
ATOM     22  C   UNL     1       1.753  36.995  11.801  1.00  0.00     0.007 A 
BRANCH  19  23
ATOM     23  O   UNL     1       2.053  37.093  15.373  1.00  0.00    -0.507 OA
ATOM     24  H   UNL     1       1.997  36.572  16.082  1.00  0.00     0.293 HD
ENDBRANCH  19  23
BRANCH  20  25
ATOM     25  C   UNL     1       1.399  35.039  10.208  1.00  0.00     0.072 C 
BRANCH  25  26
ATOM     26  C   UNL     1       2.589  34.146   9.711  1.00  0.00     0.196 C 
BRANCH  26  27
ATOM     27  N   UNL     1       2.974  33.107  10.588  1.00  0.00    -0.341 N 
ATOM     28  C   UNL     1       2.837  31.808  10.508  1.00  0.00     0.242 CG0
ATOM     29  H   UNL     1       3.431  33.400  11.350  1.00  0.00     0.164 HD
ATOM     30  O   UNL     1       2.134  31.362   9.608  1.00  0.00    -0.273 OA
ATOM     31  G   UNL     1       3.506  30.894  11.449  1.00  0.00     0.000 G0
ENDBRANCH  26  27
BRANCH  26  32
ATOM     32  C   UNL     1       3.669  34.894   9.072  1.00  0.00     0.326 C 
ATOM     33  O   UNL     1       3.990  34.763   7.901  1.00  0.00    -0.250 OA
BRANCH  32  34
ATOM     34  O   UNL     1       4.315  35.742   9.680  1.00  0.00    -0.480 OA
ATOM     35  H   UNL     1       4.106  35.967  10.505  1.00  0.00     0.296 HD
ENDBRANCH  32  34
ENDBRANCH  26  32
ENDBRANCH  25  26
ENDBRANCH  20  25
ENDBRANCH  14  17
BRANCH  16  36
ATOM     36  O   UNL     1      -0.148  34.870  16.280  1.00  0.00    -0.507 OA
ATOM     37  H   UNL     1      -0.708  35.086  15.635  1.00  0.00     0.293 HD
ENDBRANCH  16  36
ENDBRANCH   3  11
ENDBRANCH   1   3
BRANCH   1  38
ATOM     38  C   UNL     1       4.955  29.470  16.586  1.00  0.00     0.242 C 
ATOM     39  O   UNL     1       6.119  29.092  16.677  1.00  0.00    -0.273 OA
BRANCH  38  40
ATOM     40  C   UNL     1       4.002  28.396  16.884  1.00  0.00     0.216 C 
BRANCH  40  41
ATOM     41  N   UNL     1       3.287  28.659  18.047  1.00  0.00    -0.345 N 
ATOM     42  C   UNL     1       2.021  28.735  18.328  1.00  0.00     0.242 C 
ATOM     43  H   UNL     1       3.851  28.853  18.770  1.00  0.00     0.164 HD
ATOM     44  O   UNL     1       1.899  29.144  19.477  1.00  0.00    -0.273 OA
BRANCH  42  45
ATOM     45  C   UNL     1       0.812  28.492  17.524  1.00  0.00     0.168 C 
ATOM     46  C   UNL     1       0.064  27.151  17.756  1.00  0.00     0.041 C 
BRANCH  45  47
ATOM     47  N   UNL     1      -0.174  29.441  17.823  1.00  0.00    -0.343 N 
ATOM     48  C   UNL     1      -1.205  29.941  17.211  1.00  0.00     0.245 C 
ATOM     49  H   UNL     1      -0.041  29.813  18.673  1.00  0.00     0.164 HD
ATOM     50  O   UNL     1      -1.741  30.757  17.950  1.00  0.00    -0.273 OA
BRANCH  48  51
ATOM     51  C   UNL     1      -1.801  29.762  15.883  1.00  0.00     0.199 C 
BRANCH  51  52
ATOM     52  N   UNL     1      -1.311  30.748  14.961  1.00  0.00    -0.332 N 
ATOM     53  C   UNL     1      -1.974  32.002  14.897  1.00  0.00     0.147 C 
BRANCH  52  54
ATOM     54  C   UNL     1      -0.288  30.493  14.157  1.00  0.00     0.219 C 
ATOM     55  O   UNL     1       0.195  31.391  13.476  1.00  0.00    -0.275 OA
ATOM     56  C   UNL     1       0.331  29.194  13.952  1.00  0.00     0.114 C 
ENDBRANCH  52  54
ENDBRANCH  51  52
BRANCH  51  57
ATOM     57  C   UNL     1      -3.333  29.487  15.750  1.00  0.00     0.191 C 
BRANCH  57  58
ATOM     58  O   UNL     1      -3.810  28.751  16.874  1.00  0.00    -0.394 OA
ATOM     59  H   UNL     1      -4.787  28.752  16.793  1.00  0.00     0.210 HD
ENDBRANCH  57  58
ENDBRANCH  51  57
ENDBRANCH  48  51
ENDBRANCH  45  47
ENDBRANCH  42  45
ENDBRANCH  40  41
ENDBRANCH  38  40
ENDBRANCH   1  38
TORSDOF 15
ENDMDL
MODEL 14
REMARK VINA RESULT:    -9.617      4.910      9.615
REMARK INTER + INTRA:         -15.554
REMARK INTER:                 -11.781
REMARK INTRA:                  -3.773
REMARK UNBOUND:                 5.307
REMARK SMILES CC(=O)N(C)[C@H](CO)C(=O)N[C@H](C)C(=O)NCC(=O)N(C)[C@@H]1C(=O)N[C@@H](C)C(=O)N[C@H](C(=O)O)Cc2ccc(O)c(c2)-c2cc1ccc2O
REMARK SMILES IDX 20 1 21 2 22 3 23 4 24 5 25 6 26 8 27 9 45 11 44 12 46 13
REMARK SMILES IDX 43 14 47 15 48 16 41 17 42 18 39 19 36 20 38 21 37 22 40 23
REMARK SMILES IDX 35 25 31 26 30 27 28 28 29 30 32 32 33 33 34 34 49 36 18 38
REMARK SMILES IDX 19 39 17 40 16 41 14 42 15 44 12 45 13 46 11 47 9 48 10 50
REMARK SMILES IDX 6 51 4 52 5 53 2 54 3 55 1 56 7 57 8 58
REMARK H PARENT 25 7 40 24 30 29 34 35 49 37 16 43 11 49 8 59
REMARK Flexibility Score: 80.00
ROOT
ATOM      1  N   UNL     1      -4.593  39.834   9.852  1.00  0.00    -0.328 N 
ATOM      2  C   UNL     1      -5.315  40.950   9.364  1.00  0.00     0.148 C 
ENDROOT
BRANCH   1   3
ATOM      3  C   UNL     1      -3.634  39.200   8.979  1.00  0.00     0.204 C 
BRANCH   3   4
ATOM      4  C   UNL     1      -3.038  37.871   9.272  1.00  0.00     0.248 C 
ATOM      5  O   UNL     1      -3.259  36.905   8.550  1.00  0.00    -0.272 OA
ATOM      6  N   UNL     1      -2.229  37.704  10.279  1.00  0.00    -0.342 N 
ATOM      7  H   UNL     1      -2.458  38.220  11.019  1.00  0.00     0.164 HD
BRANCH   6   8
ATOM      8  C   UNL     1      -1.027  36.975  10.431  1.00  0.00     0.168 CG0
ATOM      9  C   UNL     1      -0.140  37.012   9.148  1.00  0.00     0.041 C 
ATOM     10  G   UNL     1      -0.286  37.434  11.619  1.00  0.00     0.000 G0
ENDBRANCH   6   8
ENDBRANCH   3   4
BRANCH   3  11
ATOM     11  C   UNL     1      -2.496  40.130   8.657  1.00  0.00    -0.015 A 
ATOM     12  C   UNL     1      -1.660  40.613   9.691  1.00  0.00     0.019 A 
ATOM     13  C   UNL     1      -2.171  40.503   7.333  1.00  0.00     0.010 A 
ATOM     14  C   UNL     1      -0.440  41.270   9.426  1.00  0.00     0.028 A 
ATOM     15  C   UNL     1      -1.018  41.262   7.055  1.00  0.00     0.047 A 
ATOM     16  C   UNL     1      -0.135  41.626   8.092  1.00  0.00     0.123 A 
BRANCH  14  17
ATOM     17  C   UNL     1       0.449  41.385  10.523  1.00  0.00     0.027 A 
ATOM     18  C   UNL     1       1.298  40.278  10.756  1.00  0.00     0.016 A 
ATOM     19  C   UNL     1       0.437  42.444  11.459  1.00  0.00     0.123 A 
ATOM     20  C   UNL     1       2.029  40.129  11.955  1.00  0.00    -0.044 A 
ATOM     21  C   UNL     1       1.227  42.352  12.623  1.00  0.00     0.047 A 
ATOM     22  C   UNL     1       1.997  41.200  12.877  1.00  0.00     0.007 A 
BRANCH  19  23
ATOM     23  O   UNL     1      -0.290  43.455  11.280  1.00  0.00    -0.507 OA
ATOM     24  H   UNL     1      -0.399  43.795  10.475  1.00  0.00     0.293 HD
ENDBRANCH  19  23
BRANCH  20  25
ATOM     25  C   UNL     1       2.771  38.864  12.219  1.00  0.00     0.072 C 
BRANCH  25  26
ATOM     26  C   UNL     1       1.942  37.618  12.686  1.00  0.00     0.196 C 
BRANCH  26  27
ATOM     27  N   UNL     1       0.984  37.146  11.761  1.00  0.00    -0.341 N 
ATOM     28  C   UNL     1      -0.286  37.422  11.610  1.00  0.00     0.242 CG0
ATOM     29  H   UNL     1       1.327  36.548  11.127  1.00  0.00     0.164 HD
ATOM     30  O   UNL     1      -0.834  38.090  12.480  1.00  0.00    -0.273 OA
ATOM     31  G   UNL     1      -1.048  36.965  10.435  1.00  0.00     0.000 G0
ENDBRANCH  26  27
BRANCH  26  32
ATOM     32  C   UNL     1       1.527  37.668  14.086  1.00  0.00     0.326 C 
ATOM     33  O   UNL     1       1.818  36.819  14.915  1.00  0.00    -0.250 OA
BRANCH  32  34
ATOM     34  O   UNL     1       0.871  38.604  14.532  1.00  0.00    -0.480 OA
ATOM     35  H   UNL     1       1.178  39.099  15.192  1.00  0.00     0.296 HD
ENDBRANCH  32  34
ENDBRANCH  26  32
ENDBRANCH  25  26
ENDBRANCH  20  25
ENDBRANCH  14  17
BRANCH  16  36
ATOM     36  O   UNL     1       0.926  42.238   7.810  1.00  0.00    -0.507 OA
ATOM     37  H   UNL     1       1.709  41.913   8.049  1.00  0.00     0.293 HD
ENDBRANCH  16  36
ENDBRANCH   3  11
ENDBRANCH   1   3
BRANCH   1  38
ATOM     38  C   UNL     1      -4.786  39.381  11.104  1.00  0.00     0.242 C 
ATOM     39  O   UNL     1      -3.945  39.633  11.962  1.00  0.00    -0.273 OA
BRANCH  38  40
ATOM     40  C   UNL     1      -5.890  38.576  11.636  1.00  0.00     0.216 C 
BRANCH  40  41
ATOM     41  N   UNL     1      -5.477  37.284  11.942  1.00  0.00    -0.345 N 
ATOM     42  C   UNL     1      -4.964  36.729  12.998  1.00  0.00     0.242 C 
ATOM     43  H   UNL     1      -5.563  36.705  11.210  1.00  0.00     0.164 HD
ATOM     44  O   UNL     1      -4.632  35.583  12.717  1.00  0.00    -0.273 OA
BRANCH  42  45
ATOM     45  C   UNL     1      -4.680  37.244  14.348  1.00  0.00     0.168 C 
ATOM     46  C   UNL     1      -5.796  38.071  15.040  1.00  0.00     0.041 C 
BRANCH  45  47
ATOM     47  N   UNL     1      -4.491  36.185  15.246  1.00  0.00    -0.343 N 
ATOM     48  C   UNL     1      -3.482  35.662  15.874  1.00  0.00     0.245 C 
ATOM     49  H   UNL     1      -5.298  35.740  15.422  1.00  0.00     0.164 HD
ATOM     50  O   UNL     1      -3.887  34.729  16.556  1.00  0.00    -0.273 OA
BRANCH  48  51
ATOM     51  C   UNL     1      -2.038  35.922  15.902  1.00  0.00     0.199 C 
BRANCH  51  52
ATOM     52  N   UNL     1      -1.306  34.833  15.320  1.00  0.00    -0.332 N 
ATOM     53  C   UNL     1      -1.444  34.596  13.926  1.00  0.00     0.147 C 
BRANCH  52  54
ATOM     54  C   UNL     1      -0.546  34.038  16.060  1.00  0.00     0.219 C 
ATOM     55  O   UNL     1       0.675  34.097  15.967  1.00  0.00    -0.275 OA
ATOM     56  C   UNL     1      -1.023  33.024  16.985  1.00  0.00     0.114 C 
ENDBRANCH  52  54
ENDBRANCH  51  52
BRANCH  51  57
ATOM     57  C   UNL     1      -1.380  36.501  17.195  1.00  0.00     0.191 C 
BRANCH  57  58
ATOM     58  O   UNL     1      -0.525  37.596  16.876  1.00  0.00    -0.394 OA
ATOM     59  H   UNL     1      -0.932  38.380  17.300  1.00  0.00     0.210 HD
ENDBRANCH  57  58
ENDBRANCH  51  57
ENDBRANCH  48  51
ENDBRANCH  45  47
ENDBRANCH  42  45
ENDBRANCH  40  41
ENDBRANCH  38  40
ENDBRANCH   1  38
TORSDOF 15
ENDMDL
MODEL 15
REMARK VINA RESULT:    -9.593      1.869      2.680
REMARK INTER + INTRA:         -15.503
REMARK INTER:                 -13.214
REMARK INTRA:                  -2.289
REMARK UNBOUND:                 5.307
REMARK SMILES CC(=O)N(C)[C@H](CO)C(=O)N[C@H](C)C(=O)NCC(=O)N(C)[C@@H]1C(=O)N[C@@H](C)C(=O)N[C@H](C(=O)O)Cc2ccc(O)c(c2)-c2cc1ccc2O
REMARK SMILES IDX 20 1 21 2 22 3 23 4 24 5 25 6 26 8 27 9 45 11 44 12 46 13
REMARK SMILES IDX 43 14 47 15 48 16 41 17 42 18 39 19 36 20 38 21 37 22 40 23
REMARK SMILES IDX 35 25 31 26 30 27 28 28 29 30 32 32 33 33 34 34 49 36 18 38
REMARK SMILES IDX 19 39 17 40 16 41 14 42 15 44 12 45 13 46 11 47 9 48 10 50
REMARK SMILES IDX 6 51 4 52 5 53 2 54 3 55 1 56 7 57 8 58
REMARK H PARENT 25 7 40 24 30 29 34 35 49 37 16 43 11 49 8 59
REMARK Flexibility Score: 80.00
ROOT
ATOM      1  N   UNL     1      -2.513  31.495  16.126  1.00  0.00    -0.328 N 
ATOM      2  C   UNL     1      -3.705  31.361  15.374  1.00  0.00     0.148 C 
ENDROOT
BRANCH   1   3
ATOM      3  C   UNL     1      -1.583  30.391  16.146  1.00  0.00     0.204 C 
BRANCH   3   4
ATOM      4  C   UNL     1      -1.088  29.782  17.408  1.00  0.00     0.248 C 
ATOM      5  O   UNL     1      -1.752  29.828  18.437  1.00  0.00    -0.272 OA
ATOM      6  N   UNL     1       0.047  29.143  17.445  1.00  0.00    -0.342 N 
ATOM      7  H   UNL     1       0.695  29.520  16.892  1.00  0.00     0.164 HD
BRANCH   6   8
ATOM      8  C   UNL     1       0.451  27.946  18.079  1.00  0.00     0.168 CG0
ATOM      9  C   UNL     1       0.512  26.739  17.092  1.00  0.00     0.041 C 
ATOM     10  G   UNL     1       1.730  28.136  18.786  1.00  0.00     0.000 G0
ENDBRANCH   6   8
ENDBRANCH   3   4
BRANCH   3  11
ATOM     11  C   UNL     1      -0.378  30.683  15.295  1.00  0.00    -0.015 A 
ATOM     12  C   UNL     1       0.860  31.000  15.903  1.00  0.00     0.019 A 
ATOM     13  C   UNL     1      -0.401  30.588  13.885  1.00  0.00     0.010 A 
ATOM     14  C   UNL     1       2.069  31.028  15.176  1.00  0.00     0.028 A 
ATOM     15  C   UNL     1       0.776  30.730  13.128  1.00  0.00     0.047 A 
ATOM     16  C   UNL     1       2.018  30.924  13.767  1.00  0.00     0.123 A 
BRANCH  14  17
ATOM     17  C   UNL     1       3.255  31.011  15.951  1.00  0.00     0.027 A 
ATOM     18  C   UNL     1       3.734  29.735  16.330  1.00  0.00     0.016 A 
ATOM     19  C   UNL     1       3.886  32.161  16.479  1.00  0.00     0.123 A 
ATOM     20  C   UNL     1       4.728  29.568  17.318  1.00  0.00    -0.044 A 
ATOM     21  C   UNL     1       4.939  32.013  17.404  1.00  0.00     0.047 A 
ATOM     22  C   UNL     1       5.341  30.733  17.833  1.00  0.00     0.007 A 
BRANCH  19  23
ATOM     23  O   UNL     1       3.502  33.314  16.154  1.00  0.00    -0.507 OA
ATOM     24  H   UNL     1       3.159  33.861  16.753  1.00  0.00     0.293 HD
ENDBRANCH  19  23
BRANCH  20  25
ATOM     25  C   UNL     1       5.073  28.200  17.799  1.00  0.00     0.072 C 
BRANCH  25  26
ATOM     26  C   UNL     1       4.126  27.541  18.861  1.00  0.00     0.196 C 
BRANCH  26  27
ATOM     27  N   UNL     1       2.772  27.422  18.473  1.00  0.00    -0.341 N 
ATOM     28  C   UNL     1       1.719  28.143  18.766  1.00  0.00     0.242 CG0
ATOM     29  H   UNL     1       2.604  26.717  17.881  1.00  0.00     0.164 HD
ATOM     30  O   UNL     1       1.835  28.998  19.637  1.00  0.00    -0.273 OA
ATOM     31  G   UNL     1       0.431  27.956  18.076  1.00  0.00     0.000 G0
ENDBRANCH  26  27
BRANCH  26  32
ATOM     32  C   UNL     1       4.375  27.974  20.233  1.00  0.00     0.326 C 
ATOM     33  O   UNL     1       4.419  27.216  21.191  1.00  0.00    -0.250 OA
BRANCH  32  34
ATOM     34  O   UNL     1       4.592  29.149  20.510  1.00  0.00    -0.480 OA
ATOM     35  H   UNL     1       4.655  29.414  21.348  1.00  0.00     0.296 HD
ENDBRANCH  32  34
ENDBRANCH  26  32
ENDBRANCH  25  26
ENDBRANCH  20  25
ENDBRANCH  14  17
BRANCH  16  36
ATOM     36  O   UNL     1       3.066  30.973  13.075  1.00  0.00    -0.507 OA
ATOM     37  H   UNL     1       3.661  30.325  13.115  1.00  0.00     0.293 HD
ENDBRANCH  16  36
ENDBRANCH   3  11
ENDBRANCH   1   3
BRANCH   1  38
ATOM     38  C   UNL     1      -2.245  32.631  16.798  1.00  0.00     0.242 C 
ATOM     39  O   UNL     1      -2.318  32.627  18.023  1.00  0.00    -0.273 OA
BRANCH  38  40
ATOM     40  C   UNL     1      -1.874  33.949  16.273  1.00  0.00     0.216 C 
BRANCH  40  41
ATOM     41  N   UNL     1      -0.544  33.981  15.870  1.00  0.00    -0.345 N 
ATOM     42  C   UNL     1       0.224  34.902  15.372  1.00  0.00     0.242 C 
ATOM     43  H   UNL     1      -0.133  33.142  15.949  1.00  0.00     0.164 HD
ATOM     44  O   UNL     1       1.287  34.390  15.042  1.00  0.00    -0.273 OA
BRANCH  42  45
ATOM     45  C   UNL     1       0.007  36.334  15.103  1.00  0.00     0.168 C 
ATOM     46  C   UNL     1      -0.626  37.180  16.240  1.00  0.00     0.041 C 
BRANCH  45  47
ATOM     47  N   UNL     1       1.230  36.984  14.891  1.00  0.00    -0.343 N 
ATOM     48  C   UNL     1       1.665  37.919  14.104  1.00  0.00     0.245 C 
ATOM     49  H   UNL     1       1.898  36.642  15.453  1.00  0.00     0.164 HD
ATOM     50  O   UNL     1       2.850  38.114  14.345  1.00  0.00    -0.273 OA
BRANCH  48  51
ATOM     51  C   UNL     1       1.072  38.718  13.025  1.00  0.00     0.199 C 
BRANCH  51  52
ATOM     52  N   UNL     1       0.817  37.911  11.866  1.00  0.00    -0.332 N 
ATOM     53  C   UNL     1      -0.440  38.036  11.218  1.00  0.00     0.147 C 
BRANCH  52  54
ATOM     54  C   UNL     1       1.712  37.038  11.422  1.00  0.00     0.219 C 
ATOM     55  O   UNL     1       2.746  37.434  10.897  1.00  0.00    -0.275 OA
ATOM     56  C   UNL     1       1.577  35.591  11.453  1.00  0.00     0.114 C 
ENDBRANCH  52  54
ENDBRANCH  51  52
BRANCH  51  57
ATOM     57  C   UNL     1       1.656  40.127  12.692  1.00  0.00     0.191 C 
BRANCH  57  58
ATOM     58  O   UNL     1       3.043  40.035  12.377  1.00  0.00    -0.394 OA
ATOM     59  H   UNL     1       3.099  39.421  11.614  1.00  0.00     0.210 HD
ENDBRANCH  57  58
ENDBRANCH  51  57
ENDBRANCH  48  51
ENDBRANCH  45  47
ENDBRANCH  42  45
ENDBRANCH  40  41
ENDBRANCH  38  40
ENDBRANCH   1  38
TORSDOF 15
ENDMDL
MODEL 16
REMARK VINA RESULT:    -9.592      2.249      3.462
REMARK INTER + INTRA:         -15.500
REMARK INTER:                 -13.254
REMARK INTRA:                  -2.246
REMARK UNBOUND:                 5.307
REMARK SMILES CC(=O)N(C)[C@H](CO)C(=O)N[C@H](C)C(=O)NCC(=O)N(C)[C@@H]1C(=O)N[C@@H](C)C(=O)N[C@H](C(=O)O)Cc2ccc(O)c(c2)-c2cc1ccc2O
REMARK SMILES IDX 20 1 21 2 22 3 23 4 24 5 25 6 26 8 27 9 45 11 44 12 46 13
REMARK SMILES IDX 43 14 47 15 48 16 41 17 42 18 39 19 36 20 38 21 37 22 40 23
REMARK SMILES IDX 35 25 31 26 30 27 28 28 29 30 32 32 33 33 34 34 49 36 18 38
REMARK SMILES IDX 19 39 17 40 16 41 14 42 15 44 12 45 13 46 11 47 9 48 10 50
REMARK SMILES IDX 6 51 4 52 5 53 2 54 3 55 1 56 7 57 8 58
REMARK H PARENT 25 7 40 24 30 29 34 35 49 37 16 43 11 49 8 59
REMARK Flexibility Score: 80.00
ROOT
ATOM      1  N   UNL     1      -2.178  34.076  16.534  1.00  0.00    -0.328 N 
ATOM      2  C   UNL     1      -2.165  33.916  17.941  1.00  0.00     0.148 C 
ENDROOT
BRANCH   1   3
ATOM      3  C   UNL     1      -2.313  32.900  15.708  1.00  0.00     0.204 C 
BRANCH   3   4
ATOM      4  C   UNL     1      -2.769  31.591  16.243  1.00  0.00     0.248 C 
ATOM      5  O   UNL     1      -3.908  31.187  16.040  1.00  0.00    -0.272 OA
ATOM      6  N   UNL     1      -1.958  30.816  16.905  1.00  0.00    -0.342 N 
ATOM      7  H   UNL     1      -1.359  31.288  17.439  1.00  0.00     0.164 HD
BRANCH   6   8
ATOM      8  C   UNL     1      -1.748  29.418  16.895  1.00  0.00     0.168 CG0
ATOM      9  C   UNL     1      -1.439  28.871  15.467  1.00  0.00     0.041 C 
ATOM     10  G   UNL     1      -0.701  29.042  17.861  1.00  0.00     0.000 G0
ENDBRANCH   6   8
ENDBRANCH   3   4
BRANCH   3  11
ATOM     11  C   UNL     1      -1.055  32.641  14.925  1.00  0.00    -0.015 A 
ATOM     12  C   UNL     1       0.160  32.377  15.600  1.00  0.00     0.019 A 
ATOM     13  C   UNL     1      -1.037  32.581  13.513  1.00  0.00     0.010 A 
ATOM     14  C   UNL     1       1.299  31.879  14.932  1.00  0.00     0.028 A 
ATOM     15  C   UNL     1       0.125  32.199  12.816  1.00  0.00     0.047 A 
ATOM     16  C   UNL     1       1.287  31.822  13.519  1.00  0.00     0.123 A 
BRANCH  14  17
ATOM     17  C   UNL     1       2.311  31.335  15.761  1.00  0.00     0.027 A 
ATOM     18  C   UNL     1       2.187  29.963  16.079  1.00  0.00     0.016 A 
ATOM     19  C   UNL     1       3.324  32.093  16.392  1.00  0.00     0.123 A 
ATOM     20  C   UNL     1       2.947  29.355  17.102  1.00  0.00    -0.044 A 
ATOM     21  C   UNL     1       4.151  31.480  17.355  1.00  0.00     0.047 A 
ATOM     22  C   UNL     1       3.951  30.134  17.720  1.00  0.00     0.007 A 
BRANCH  19  23
ATOM     23  O   UNL     1       3.480  33.312  16.125  1.00  0.00    -0.507 OA
ATOM     24  H   UNL     1       2.942  33.921  16.466  1.00  0.00     0.293 HD
ENDBRANCH  19  23
BRANCH  20  25
ATOM     25  C   UNL     1       2.655  27.952  17.508  1.00  0.00     0.072 C 
BRANCH  25  26
ATOM     26  C   UNL     1       1.325  27.684  18.295  1.00  0.00     0.196 C 
BRANCH  26  27
ATOM     27  N   UNL     1       0.140  28.078  17.634  1.00  0.00    -0.341 N 
ATOM     28  C   UNL     1      -0.690  29.065  17.857  1.00  0.00     0.242 CG0
ATOM     29  H   UNL     1      -0.074  27.555  16.889  1.00  0.00     0.164 HD
ATOM     30  O   UNL     1      -0.549  29.709  18.891  1.00  0.00    -0.273 OA
ATOM     31  G   UNL     1      -1.758  29.415  16.904  1.00  0.00     0.000 G0
ENDBRANCH  26  27
BRANCH  26  32
ATOM     32  C   UNL     1       1.406  27.982  19.723  1.00  0.00     0.326 C 
ATOM     33  O   UNL     1       2.295  28.648  20.232  1.00  0.00    -0.250 OA
BRANCH  32  34
ATOM     34  O   UNL     1       0.547  27.600  20.512  1.00  0.00    -0.480 OA
ATOM     35  H   UNL     1      -0.297  27.829  20.410  1.00  0.00     0.296 HD
ENDBRANCH  32  34
ENDBRANCH  26  32
ENDBRANCH  25  26
ENDBRANCH  20  25
ENDBRANCH  14  17
BRANCH  16  36
ATOM     36  O   UNL     1       2.289  31.413  12.879  1.00  0.00    -0.507 OA
ATOM     37  H   UNL     1       2.705  31.941  12.311  1.00  0.00     0.293 HD
ENDBRANCH  16  36
ENDBRANCH   3  11
ENDBRANCH   1   3
BRANCH   1  38
ATOM     38  C   UNL     1      -2.081  35.298  15.977  1.00  0.00     0.242 C 
ATOM     39  O   UNL     1      -2.921  35.642  15.151  1.00  0.00    -0.273 OA
BRANCH  38  40
ATOM     40  C   UNL     1      -1.069  36.336  16.198  1.00  0.00     0.216 C 
BRANCH  40  41
ATOM     41  N   UNL     1       0.181  35.933  15.743  1.00  0.00    -0.345 N 
ATOM     42  C   UNL     1       0.866  36.169  14.665  1.00  0.00     0.242 C 
ATOM     43  H   UNL     1       0.596  35.338  16.337  1.00  0.00     0.164 HD
ATOM     44  O   UNL     1       1.861  35.454  14.669  1.00  0.00    -0.273 OA
BRANCH  42  45
ATOM     45  C   UNL     1       0.615  37.038  13.503  1.00  0.00     0.168 C 
ATOM     46  C   UNL     1      -0.864  37.252  13.084  1.00  0.00     0.041 C 
BRANCH  45  47
ATOM     47  N   UNL     1       1.043  38.346  13.770  1.00  0.00    -0.343 N 
ATOM     48  C   UNL     1       1.373  39.383  13.061  1.00  0.00     0.245 C 
ATOM     49  H   UNL     1       1.120  38.497  14.691  1.00  0.00     0.164 HD
ATOM     50  O   UNL     1       1.672  40.296  13.819  1.00  0.00    -0.273 OA
BRANCH  48  51
ATOM     51  C   UNL     1       1.488  39.654  11.623  1.00  0.00     0.199 C 
BRANCH  51  52
ATOM     52  N   UNL     1       0.832  40.884  11.277  1.00  0.00    -0.332 N 
ATOM     53  C   UNL     1       1.623  41.956  10.787  1.00  0.00     0.147 C 
BRANCH  52  54
ATOM     54  C   UNL     1      -0.474  41.040  11.441  1.00  0.00     0.219 C 
ATOM     55  O   UNL     1      -0.899  41.718  12.370  1.00  0.00    -0.275 OA
ATOM     56  C   UNL     1      -1.513  40.432  10.626  1.00  0.00     0.114 C 
ENDBRANCH  52  54
ENDBRANCH  51  52
BRANCH  51  57
ATOM     57  C   UNL     1       1.247  38.504  10.595  1.00  0.00     0.191 C 
BRANCH  57  58
ATOM     58  O   UNL     1       1.248  39.013   9.263  1.00  0.00    -0.394 OA
ATOM     59  H   UNL     1       0.304  39.080   9.006  1.00  0.00     0.210 HD
ENDBRANCH  57  58
ENDBRANCH  51  57
ENDBRANCH  48  51
ENDBRANCH  45  47
ENDBRANCH  42  45
ENDBRANCH  40  41
ENDBRANCH  38  40
ENDBRANCH   1  38
TORSDOF 15
ENDMDL
MODEL 17
REMARK VINA RESULT:    -9.589      3.220      6.878
REMARK INTER + INTRA:         -15.492
REMARK INTER:                 -11.787
REMARK INTRA:                  -3.705
REMARK UNBOUND:                 5.307
REMARK SMILES CC(=O)N(C)[C@H](CO)C(=O)N[C@H](C)C(=O)NCC(=O)N(C)[C@@H]1C(=O)N[C@@H](C)C(=O)N[C@H](C(=O)O)Cc2ccc(O)c(c2)-c2cc1ccc2O
REMARK SMILES IDX 20 1 21 2 22 3 23 4 24 5 25 6 26 8 27 9 45 11 44 12 46 13
REMARK SMILES IDX 43 14 47 15 48 16 41 17 42 18 39 19 36 20 38 21 37 22 40 23
REMARK SMILES IDX 35 25 31 26 30 27 28 28 29 30 32 32 33 33 34 34 49 36 18 38
REMARK SMILES IDX 19 39 17 40 16 41 14 42 15 44 12 45 13 46 11 47 9 48 10 50
REMARK SMILES IDX 6 51 4 52 5 53 2 54 3 55 1 56 7 57 8 58
REMARK H PARENT 25 7 40 24 30 29 34 35 49 37 16 43 11 49 8 59
REMARK Flexibility Score: 80.00
ROOT
ATOM      1  N   UNL     1       5.190  31.364  17.152  1.00  0.00    -0.328 N 
ATOM      2  C   UNL     1       5.730  32.017  18.286  1.00  0.00     0.148 C 
ENDROOT
BRANCH   1   3
ATOM      3  C   UNL     1       5.438  29.951  16.988  1.00  0.00     0.204 C 
BRANCH   3   4
ATOM      4  C   UNL     1       5.180  29.233  15.713  1.00  0.00     0.248 C 
ATOM      5  O   UNL     1       6.102  28.904  14.975  1.00  0.00    -0.272 OA
ATOM      6  N   UNL     1       3.972  28.894  15.365  1.00  0.00    -0.342 N 
ATOM      7  H   UNL     1       3.331  29.521  15.616  1.00  0.00     0.164 HD
BRANCH   6   8
ATOM      8  C   UNL     1       3.438  27.725  14.774  1.00  0.00     0.168 CG0
ATOM      9  C   UNL     1       3.640  26.460  15.665  1.00  0.00     0.041 C 
ATOM     10  G   UNL     1       2.022  27.921  14.420  1.00  0.00     0.000 G0
ENDBRANCH   6   8
ENDBRANCH   3   4
BRANCH   3  11
ATOM     11  C   UNL     1       4.778  29.155  18.082  1.00  0.00    -0.015 A 
ATOM     12  C   UNL     1       3.391  29.297  18.325  1.00  0.00     0.019 A 
ATOM     13  C   UNL     1       5.477  28.200  18.854  1.00  0.00     0.010 A 
ATOM     14  C   UNL     1       2.678  28.402  19.150  1.00  0.00     0.028 A 
ATOM     15  C   UNL     1       4.802  27.374  19.773  1.00  0.00     0.047 A 
ATOM     16  C   UNL     1       3.401  27.452  19.907  1.00  0.00     0.123 A 
BRANCH  14  17
ATOM     17  C   UNL     1       1.267  28.445  19.030  1.00  0.00     0.027 A 
ATOM     18  C   UNL     1       0.710  27.710  17.959  1.00  0.00     0.016 A 
ATOM     19  C   UNL     1       0.420  29.273  19.803  1.00  0.00     0.123 A 
ATOM     20  C   UNL     1      -0.631  27.877  17.548  1.00  0.00    -0.044 A 
ATOM     21  C   UNL     1      -0.942  29.386  19.460  1.00  0.00     0.047 A 
ATOM     22  C   UNL     1      -1.456  28.713  18.334  1.00  0.00     0.007 A 
BRANCH  19  23
ATOM     23  O   UNL     1       0.873  29.929  20.776  1.00  0.00    -0.507 OA
ATOM     24  H   UNL     1       1.729  29.901  20.980  1.00  0.00     0.293 HD
ENDBRANCH  19  23
BRANCH  20  25
ATOM     25  C   UNL     1      -1.116  27.206  16.309  1.00  0.00     0.072 C 
BRANCH  25  26
ATOM     26  C   UNL     1      -0.352  27.504  14.972  1.00  0.00     0.196 C 
BRANCH  26  27
ATOM     27  N   UNL     1       1.049  27.324  15.023  1.00  0.00    -0.341 N 
ATOM     28  C   UNL     1       2.026  27.941  14.407  1.00  0.00     0.242 CG0
ATOM     29  H   UNL     1       1.328  26.663  15.623  1.00  0.00     0.164 HD
ATOM     30  O   UNL     1       1.733  28.724  13.510  1.00  0.00    -0.273 OA
ATOM     31  G   UNL     1       3.437  27.725  14.773  1.00  0.00     0.000 G0
ENDBRANCH  26  27
BRANCH  26  32
ATOM     32  C   UNL     1      -0.832  28.686  14.261  1.00  0.00     0.326 C 
ATOM     33  O   UNL     1      -1.039  29.766  14.793  1.00  0.00    -0.250 OA
BRANCH  32  34
ATOM     34  O   UNL     1      -1.031  28.674  13.050  1.00  0.00    -0.480 OA
ATOM     35  H   UNL     1      -1.236  29.412  12.617  1.00  0.00     0.296 HD
ENDBRANCH  32  34
ENDBRANCH  26  32
ENDBRANCH  25  26
ENDBRANCH  20  25
ENDBRANCH  14  17
BRANCH  16  36
ATOM     36  O   UNL     1       2.811  26.653  20.678  1.00  0.00    -0.507 OA
ATOM     37  H   UNL     1       2.340  26.951  21.360  1.00  0.00     0.293 HD
ENDBRANCH  16  36
ENDBRANCH   3  11
ENDBRANCH   1   3
BRANCH   1  38
ATOM     38  C   UNL     1       4.452  32.039  16.251  1.00  0.00     0.242 C 
ATOM     39  O   UNL     1       5.014  32.544  15.283  1.00  0.00    -0.273 OA
BRANCH  38  40
ATOM     40  C   UNL     1       3.009  32.299  16.247  1.00  0.00     0.216 C 
BRANCH  40  41
ATOM     41  N   UNL     1       2.724  33.585  15.804  1.00  0.00    -0.345 N 
ATOM     42  C   UNL     1       1.718  34.122  15.182  1.00  0.00     0.242 C 
ATOM     43  H   UNL     1       3.433  34.177  15.967  1.00  0.00     0.164 HD
ATOM     44  O   UNL     1       2.012  35.273  14.882  1.00  0.00    -0.273 OA
BRANCH  42  45
ATOM     45  C   UNL     1       0.416  33.582  14.756  1.00  0.00     0.168 C 
ATOM     46  C   UNL     1       0.427  32.501  13.642  1.00  0.00     0.041 C 
BRANCH  45  47
ATOM     47  N   UNL     1      -0.206  32.912  15.818  1.00  0.00    -0.343 N 
ATOM     48  C   UNL     1      -1.420  32.792  16.263  1.00  0.00     0.245 C 
ATOM     49  H   UNL     1       0.418  32.448  16.340  1.00  0.00     0.164 HD
ATOM     50  O   UNL     1      -1.406  32.065  17.247  1.00  0.00    -0.273 OA
BRANCH  48  51
ATOM     51  C   UNL     1      -2.721  33.347  15.870  1.00  0.00     0.199 C 
BRANCH  51  52
ATOM     52  N   UNL     1      -2.993  34.570  16.570  1.00  0.00    -0.332 N 
ATOM     53  C   UNL     1      -4.012  34.570  17.559  1.00  0.00     0.147 C 
BRANCH  52  54
ATOM     54  C   UNL     1      -2.341  35.689  16.284  1.00  0.00     0.219 C 
ATOM     55  O   UNL     1      -1.497  36.122  17.061  1.00  0.00    -0.275 OA
ATOM     56  C   UNL     1      -2.554  36.523  15.114  1.00  0.00     0.114 C 
ENDBRANCH  52  54
ENDBRANCH  51  52
BRANCH  51  57
ATOM     57  C   UNL     1      -3.961  32.405  15.749  1.00  0.00     0.191 C 
BRANCH  57  58
ATOM     58  O   UNL     1      -3.592  31.053  16.010  1.00  0.00    -0.394 OA
ATOM     59  H   UNL     1      -3.596  30.963  16.987  1.00  0.00     0.210 HD
ENDBRANCH  57  58
ENDBRANCH  51  57
ENDBRANCH  48  51
ENDBRANCH  45  47
ENDBRANCH  42  45
ENDBRANCH  40  41
ENDBRANCH  38  40
ENDBRANCH   1  38
TORSDOF 15
ENDMDL
MODEL 18
REMARK VINA RESULT:    -9.581      2.999      8.683
REMARK INTER + INTRA:         -15.476
REMARK INTER:                 -11.864
REMARK INTRA:                  -3.612
REMARK UNBOUND:                 5.307
REMARK SMILES CC(=O)N(C)[C@H](CO)C(=O)N[C@H](C)C(=O)NCC(=O)N(C)[C@@H]1C(=O)N[C@@H](C)C(=O)N[C@H](C(=O)O)Cc2ccc(O)c(c2)-c2cc1ccc2O
REMARK SMILES IDX 20 1 21 2 22 3 23 4 24 5 25 6 26 8 27 9 45 11 44 12 46 13
REMARK SMILES IDX 43 14 47 15 48 16 41 17 42 18 39 19 36 20 38 21 37 22 40 23
REMARK SMILES IDX 35 25 31 26 30 27 28 28 29 30 32 32 33 33 34 34 49 36 18 38
REMARK SMILES IDX 19 39 17 40 16 41 14 42 15 44 12 45 13 46 11 47 9 48 10 50
REMARK SMILES IDX 6 51 4 52 5 53 2 54 3 55 1 56 7 57 8 58
REMARK H PARENT 25 7 40 24 30 29 34 35 49 37 16 43 11 49 8 59
REMARK Flexibility Score: 80.00
ROOT
ATOM      1  N   UNL     1      -1.842  31.689  15.559  1.00  0.00    -0.328 N 
ATOM      2  C   UNL     1      -2.778  30.667  15.846  1.00  0.00     0.148 C 
ENDROOT
BRANCH   1   3
ATOM      3  C   UNL     1      -2.298  32.861  14.850  1.00  0.00     0.204 C 
BRANCH   3   4
ATOM      4  C   UNL     1      -2.157  33.015  13.379  1.00  0.00     0.248 C 
ATOM      5  O   UNL     1      -1.636  32.139  12.698  1.00  0.00    -0.272 OA
ATOM      6  N   UNL     1      -2.622  34.066  12.766  1.00  0.00    -0.342 N 
ATOM      7  H   UNL     1      -2.540  34.847  13.267  1.00  0.00     0.164 HD
BRANCH   6   8
ATOM      8  C   UNL     1      -3.310  34.235  11.541  1.00  0.00     0.168 CG0
ATOM      9  C   UNL     1      -4.859  34.185  11.716  1.00  0.00     0.041 C 
ATOM     10  G   UNL     1      -2.877  35.470  10.867  1.00  0.00     0.000 G0
ENDBRANCH   6   8
ENDBRANCH   3   4
BRANCH   3  11
ATOM     11  C   UNL     1      -1.760  34.118  15.478  1.00  0.00    -0.015 A 
ATOM     12  C   UNL     1      -0.798  34.898  14.793  1.00  0.00     0.019 A 
ATOM     13  C   UNL     1      -2.227  34.609  16.718  1.00  0.00     0.010 A 
ATOM     14  C   UNL     1      -0.454  36.201  15.208  1.00  0.00     0.028 A 
ATOM     15  C   UNL     1      -1.805  35.858  17.211  1.00  0.00     0.047 A 
ATOM     16  C   UNL     1      -0.940  36.670  16.450  1.00  0.00     0.123 A 
BRANCH  14  17
ATOM     17  C   UNL     1       0.242  36.987  14.257  1.00  0.00     0.027 A 
ATOM     18  C   UNL     1      -0.471  37.320  13.081  1.00  0.00     0.016 A 
ATOM     19  C   UNL     1       1.612  37.324  14.340  1.00  0.00     0.123 A 
ATOM     20  C   UNL     1       0.166  37.850  11.939  1.00  0.00    -0.044 A 
ATOM     21  C   UNL     1       2.247  37.934  13.240  1.00  0.00     0.047 A 
ATOM     22  C   UNL     1       1.537  38.175  12.047  1.00  0.00     0.007 A 
BRANCH  19  23
ATOM     23  O   UNL     1       2.278  37.062  15.375  1.00  0.00    -0.507 OA
ATOM     24  H   UNL     1       1.884  36.752  16.099  1.00  0.00     0.293 HD
ENDBRANCH  19  23
BRANCH  20  25
ATOM     25  C   UNL     1      -0.602  38.022  10.673  1.00  0.00     0.072 C 
BRANCH  25  26
ATOM     26  C   UNL     1      -0.970  36.729   9.865  1.00  0.00     0.196 C 
BRANCH  26  27
ATOM     27  N   UNL     1      -1.601  35.708  10.610  1.00  0.00    -0.341 N 
ATOM     28  C   UNL     1      -2.862  35.484  10.882  1.00  0.00     0.242 CG0
ATOM     29  H   UNL     1      -1.013  35.062  10.947  1.00  0.00     0.164 HD
ATOM     30  O   UNL     1      -3.673  36.355  10.589  1.00  0.00    -0.273 OA
ATOM     31  G   UNL     1      -3.312  34.229  11.508  1.00  0.00     0.000 G0
ENDBRANCH  26  27
BRANCH  26  32
ATOM     32  C   UNL     1       0.058  36.305   8.917  1.00  0.00     0.326 C 
ATOM     33  O   UNL     1       0.261  36.848   7.842  1.00  0.00    -0.250 OA
BRANCH  32  34
ATOM     34  O   UNL     1       0.819  35.375   9.164  1.00  0.00    -0.480 OA
ATOM     35  H   UNL     1       0.510  34.570   9.338  1.00  0.00     0.296 HD
ENDBRANCH  32  34
ENDBRANCH  26  32
ENDBRANCH  25  26
ENDBRANCH  20  25
ENDBRANCH  14  17
BRANCH  16  36
ATOM     36  O   UNL     1      -0.637  37.813  16.875  1.00  0.00    -0.507 OA
ATOM     37  H   UNL     1       0.207  38.050  16.965  1.00  0.00     0.293 HD
ENDBRANCH  16  36
ENDBRANCH   3  11
ENDBRANCH   1   3
BRANCH   1  38
ATOM     38  C   UNL     1      -0.558  31.580  15.947  1.00  0.00     0.242 C 
ATOM     39  O   UNL     1      -0.291  31.663  17.143  1.00  0.00    -0.273 OA
BRANCH  38  40
ATOM     40  C   UNL     1       0.642  31.382  15.128  1.00  0.00     0.216 C 
BRANCH  40  41
ATOM     41  N   UNL     1       1.559  32.411  15.312  1.00  0.00    -0.345 N 
ATOM     42  C   UNL     1       2.846  32.451  15.482  1.00  0.00     0.242 C 
ATOM     43  H   UNL     1       1.142  33.250  15.352  1.00  0.00     0.164 HD
ATOM     44  O   UNL     1       3.170  33.601  15.751  1.00  0.00    -0.273 OA
BRANCH  42  45
ATOM     45  C   UNL     1       3.879  31.401  15.471  1.00  0.00     0.168 C 
ATOM     46  C   UNL     1       4.970  31.493  14.371  1.00  0.00     0.041 C 
BRANCH  45  47
ATOM     47  N   UNL     1       4.636  31.448  16.649  1.00  0.00    -0.343 N 
ATOM     48  C   UNL     1       4.838  30.658  17.660  1.00  0.00     0.245 C 
ATOM     49  H   UNL     1       5.098  32.259  16.724  1.00  0.00     0.164 HD
ATOM     50  O   UNL     1       5.618  31.203  18.431  1.00  0.00    -0.273 OA
BRANCH  48  51
ATOM     51  C   UNL     1       4.326  29.343  18.059  1.00  0.00     0.199 C 
BRANCH  51  52
ATOM     52  N   UNL     1       4.697  28.335  17.107  1.00  0.00    -0.332 N 
ATOM     53  C   UNL     1       3.669  27.696  16.364  1.00  0.00     0.147 C 
BRANCH  52  54
ATOM     54  C   UNL     1       5.962  27.973  16.942  1.00  0.00     0.219 C 
ATOM     55  O   UNL     1       6.708  27.890  17.912  1.00  0.00    -0.275 OA
ATOM     56  C   UNL     1       6.608  27.689  15.671  1.00  0.00     0.114 C 
ENDBRANCH  52  54
ENDBRANCH  51  52
BRANCH  51  57
ATOM     57  C   UNL     1       2.860  29.205  18.578  1.00  0.00     0.191 C 
BRANCH  57  58
ATOM     58  O   UNL     1       2.133  30.412  18.355  1.00  0.00    -0.394 OA
ATOM     59  H   UNL     1       1.194  30.141  18.270  1.00  0.00     0.210 HD
ENDBRANCH  57  58
ENDBRANCH  51  57
ENDBRANCH  48  51
ENDBRANCH  45  47
ENDBRANCH  42  45
ENDBRANCH  40  41
ENDBRANCH  38  40
ENDBRANCH   1  38
TORSDOF 15
ENDMDL
MODEL 19
REMARK VINA RESULT:    -9.487      6.740     11.110
REMARK INTER + INTRA:         -15.272
REMARK INTER:                 -11.712
REMARK INTRA:                  -3.561
REMARK UNBOUND:                 5.307
REMARK SMILES CC(=O)N(C)[C@H](CO)C(=O)N[C@H](C)C(=O)NCC(=O)N(C)[C@@H]1C(=O)N[C@@H](C)C(=O)N[C@H](C(=O)O)Cc2ccc(O)c(c2)-c2cc1ccc2O
REMARK SMILES IDX 20 1 21 2 22 3 23 4 24 5 25 6 26 8 27 9 45 11 44 12 46 13
REMARK SMILES IDX 43 14 47 15 48 16 41 17 42 18 39 19 36 20 38 21 37 22 40 23
REMARK SMILES IDX 35 25 31 26 30 27 28 28 29 30 32 32 33 33 34 34 49 36 18 38
REMARK SMILES IDX 19 39 17 40 16 41 14 42 15 44 12 45 13 46 11 47 9 48 10 50
REMARK SMILES IDX 6 51 4 52 5 53 2 54 3 55 1 56 7 57 8 58
REMARK H PARENT 25 7 40 24 30 29 34 35 49 37 16 43 11 49 8 59
REMARK Flexibility Score: 80.00
ROOT
ATOM      1  N   UNL     1      -4.315  39.277   8.478  1.00  0.00    -0.328 N 
ATOM      2  C   UNL     1      -5.239  38.557   7.684  1.00  0.00     0.148 C 
ENDROOT
BRANCH   1   3
ATOM      3  C   UNL     1      -2.920  38.908   8.417  1.00  0.00     0.204 C 
BRANCH   3   4
ATOM      4  C   UNL     1      -2.275  38.037   9.433  1.00  0.00     0.248 C 
ATOM      5  O   UNL     1      -2.942  37.430  10.263  1.00  0.00    -0.272 OA
ATOM      6  N   UNL     1      -0.985  37.859   9.444  1.00  0.00    -0.342 N 
ATOM      7  H   UNL     1      -0.510  38.623   9.200  1.00  0.00     0.164 HD
BRANCH   6   8
ATOM      8  C   UNL     1      -0.177  36.718   9.654  1.00  0.00     0.168 CG0
ATOM      9  C   UNL     1       0.162  35.973   8.326  1.00  0.00     0.041 C 
ATOM     10  G   UNL     1       1.040  37.072  10.406  1.00  0.00     0.000 G0
ENDBRANCH   6   8
ENDBRANCH   3   4
BRANCH   3  11
ATOM     11  C   UNL     1      -2.045  40.121   8.257  1.00  0.00    -0.015 A 
ATOM     12  C   UNL     1      -1.337  40.637   9.369  1.00  0.00     0.019 A 
ATOM     13  C   UNL     1      -1.835  40.749   7.009  1.00  0.00     0.010 A 
ATOM     14  C   UNL     1      -0.316  41.600   9.229  1.00  0.00     0.028 A 
ATOM     15  C   UNL     1      -0.903  41.794   6.868  1.00  0.00     0.047 A 
ATOM     16  C   UNL     1      -0.122  42.207   7.967  1.00  0.00     0.123 A 
BRANCH  14  17
ATOM     17  C   UNL     1       0.533  41.766  10.351  1.00  0.00     0.027 A 
ATOM     18  C   UNL     1       1.384  40.679  10.656  1.00  0.00     0.016 A 
ATOM     19  C   UNL     1       0.475  42.858  11.247  1.00  0.00     0.123 A 
ATOM     20  C   UNL     1       2.073  40.583  11.885  1.00  0.00    -0.044 A 
ATOM     21  C   UNL     1       1.224  42.819  12.440  1.00  0.00     0.047 A 
ATOM     22  C   UNL     1       1.997  41.687  12.764  1.00  0.00     0.007 A 
BRANCH  19  23
ATOM     23  O   UNL     1      -0.256  43.853  11.004  1.00  0.00    -0.507 OA
ATOM     24  H   UNL     1      -0.883  43.813  10.386  1.00  0.00     0.293 HD
ENDBRANCH  19  23
BRANCH  20  25
ATOM     25  C   UNL     1       2.819  39.338  12.222  1.00  0.00     0.072 C 
BRANCH  25  26
ATOM     26  C   UNL     1       1.983  38.040  12.496  1.00  0.00     0.196 C 
BRANCH  26  27
ATOM     27  N   UNL     1       0.992  37.743  11.533  1.00  0.00    -0.341 N 
ATOM     28  C   UNL     1       1.045  37.066  10.414  1.00  0.00     0.242 CG0
ATOM     29  H   UNL     1       0.141  38.067  11.748  1.00  0.00     0.164 HD
ATOM     30  O   UNL     1       2.150  36.727  10.002  1.00  0.00    -0.273 OA
ATOM     31  G   UNL     1      -0.170  36.703   9.665  1.00  0.00     0.000 G0
ENDBRANCH  26  27
BRANCH  26  32
ATOM     32  C   UNL     1       1.607  37.857  13.896  1.00  0.00     0.326 C 
ATOM     33  O   UNL     1       0.524  38.181  14.360  1.00  0.00    -0.250 OA
BRANCH  32  34
ATOM     34  O   UNL     1       2.363  37.326  14.703  1.00  0.00    -0.480 OA
ATOM     35  H   UNL     1       2.834  36.616  14.485  1.00  0.00     0.296 HD
ENDBRANCH  32  34
ENDBRANCH  26  32
ENDBRANCH  25  26
ENDBRANCH  20  25
ENDBRANCH  14  17
BRANCH  16  36
ATOM     36  O   UNL     1       0.757  43.090   7.801  1.00  0.00    -0.507 OA
ATOM     37  H   UNL     1       1.215  43.403   8.485  1.00  0.00     0.293 HD
ENDBRANCH  16  36
ENDBRANCH   3  11
ENDBRANCH   1   3
BRANCH   1  38
ATOM     38  C   UNL     1      -4.722  40.291   9.265  1.00  0.00     0.242 C 
ATOM     39  O   UNL     1      -4.615  40.178  10.482  1.00  0.00    -0.273 OA
BRANCH  38  40
ATOM     40  C   UNL     1      -5.320  41.574   8.882  1.00  0.00     0.216 C 
BRANCH  40  41
ATOM     41  N   UNL     1      -4.949  41.946   7.596  1.00  0.00    -0.345 N 
ATOM     42  C   UNL     1      -4.660  43.081   7.034  1.00  0.00     0.242 C 
ATOM     43  H   UNL     1      -4.939  41.215   7.008  1.00  0.00     0.164 HD
ATOM     44  O   UNL     1      -4.540  42.902   5.828  1.00  0.00    -0.273 OA
BRANCH  42  45
ATOM     45  C   UNL     1      -4.535  44.447   7.570  1.00  0.00     0.168 C 
ATOM     46  C   UNL     1      -5.545  44.871   8.670  1.00  0.00     0.041 C 
BRANCH  45  47
ATOM     47  N   UNL     1      -3.302  44.608   8.216  1.00  0.00    -0.343 N 
ATOM     48  C   UNL     1      -2.370  45.511   8.235  1.00  0.00     0.245 C 
ATOM     49  H   UNL     1      -3.102  43.869   8.756  1.00  0.00     0.164 HD
ATOM     50  O   UNL     1      -1.484  45.143   8.995  1.00  0.00    -0.273 OA
BRANCH  48  51
ATOM     51  C   UNL     1      -2.158  46.789   7.545  1.00  0.00     0.199 C 
BRANCH  51  52
ATOM     52  N   UNL     1      -1.833  46.581   6.163  1.00  0.00    -0.332 N 
ATOM     53  C   UNL     1      -2.518  47.350   5.185  1.00  0.00     0.147 C 
BRANCH  52  54
ATOM     54  C   UNL     1      -0.943  45.671   5.792  1.00  0.00     0.219 C 
ATOM     55  O   UNL     1       0.129  45.586   6.380  1.00  0.00    -0.275 OA
ATOM     56  C   UNL     1      -1.087  44.742   4.683  1.00  0.00     0.114 C 
ENDBRANCH  52  54
ENDBRANCH  51  52
BRANCH  51  57
ATOM     57  C   UNL     1      -1.309  47.908   8.228  1.00  0.00     0.191 C 
BRANCH  57  58
ATOM     58  O   UNL     1      -1.645  48.021   9.609  1.00  0.00    -0.394 OA
ATOM     59  H   UNL     1      -2.623  47.957   9.648  1.00  0.00     0.210 HD
ENDBRANCH  57  58
ENDBRANCH  51  57
ENDBRANCH  48  51
ENDBRANCH  45  47
ENDBRANCH  42  45
ENDBRANCH  40  41
ENDBRANCH  38  40
ENDBRANCH   1  38
TORSDOF 15
ENDMDL
MODEL 20
REMARK VINA RESULT:    -9.485      5.240      9.845
REMARK INTER + INTRA:         -15.267
REMARK INTER:                 -12.254
REMARK INTRA:                  -3.014
REMARK UNBOUND:                 5.307
REMARK SMILES CC(=O)N(C)[C@H](CO)C(=O)N[C@H](C)C(=O)NCC(=O)N(C)[C@@H]1C(=O)N[C@@H](C)C(=O)N[C@H](C(=O)O)Cc2ccc(O)c(c2)-c2cc1ccc2O
REMARK SMILES IDX 20 1 21 2 22 3 23 4 24 5 25 6 26 8 27 9 45 11 44 12 46 13
REMARK SMILES IDX 43 14 47 15 48 16 41 17 42 18 39 19 36 20 38 21 37 22 40 23
REMARK SMILES IDX 35 25 31 26 30 27 28 28 29 30 32 32 33 33 34 34 49 36 18 38
REMARK SMILES IDX 19 39 17 40 16 41 14 42 15 44 12 45 13 46 11 47 9 48 10 50
REMARK SMILES IDX 6 51 4 52 5 53 2 54 3 55 1 56 7 57 8 58
REMARK H PARENT 25 7 40 24 30 29 34 35 49 37 16 43 11 49 8 59
REMARK Flexibility Score: 80.00
ROOT
ATOM      1  N   UNL     1      -3.782  39.006  10.360  1.00  0.00    -0.328 N 
ATOM      2  C   UNL     1      -4.782  40.007  10.309  1.00  0.00     0.148 C 
ENDROOT
BRANCH   1   3
ATOM      3  C   UNL     1      -3.035  38.718   9.158  1.00  0.00     0.204 C 
BRANCH   3   4
ATOM      4  C   UNL     1      -2.225  37.483   8.993  1.00  0.00     0.248 C 
ATOM      5  O   UNL     1      -2.632  36.545   8.317  1.00  0.00    -0.272 OA
ATOM      6  N   UNL     1      -1.041  37.380   9.526  1.00  0.00    -0.342 N 
ATOM      7  H   UNL     1      -0.976  37.802  10.353  1.00  0.00     0.164 HD
BRANCH   6   8
ATOM      8  C   UNL     1       0.178  36.842   9.053  1.00  0.00     0.168 CG0
ATOM      9  C   UNL     1       0.600  37.440   7.676  1.00  0.00     0.041 C 
ATOM     10  G   UNL     1       1.241  36.994  10.062  1.00  0.00     0.000 G0
ENDBRANCH   6   8
ENDBRANCH   3   4
BRANCH   3  11
ATOM     11  C   UNL     1      -2.154  39.876   8.777  1.00  0.00    -0.015 A 
ATOM     12  C   UNL     1      -1.233  40.405   9.712  1.00  0.00     0.019 A 
ATOM     13  C   UNL     1      -2.150  40.434   7.479  1.00  0.00     0.010 A 
ATOM     14  C   UNL     1      -0.214  41.307   9.337  1.00  0.00     0.028 A 
ATOM     15  C   UNL     1      -1.217  41.423   7.115  1.00  0.00     0.047 A 
ATOM     16  C   UNL     1      -0.231  41.844   8.029  1.00  0.00     0.123 A 
BRANCH  14  17
ATOM     17  C   UNL     1       0.832  41.480  10.276  1.00  0.00     0.027 A 
ATOM     18  C   UNL     1       1.467  40.300  10.727  1.00  0.00     0.016 A 
ATOM     19  C   UNL     1       1.170  42.711  10.884  1.00  0.00     0.123 A 
ATOM     20  C   UNL     1       2.323  40.288  11.851  1.00  0.00    -0.044 A 
ATOM     21  C   UNL     1       2.089  42.730  11.952  1.00  0.00     0.047 A 
ATOM     22  C   UNL     1       2.641  41.531  12.442  1.00  0.00     0.007 A 
BRANCH  19  23
ATOM     23  O   UNL     1       0.641  43.786  10.500  1.00  0.00    -0.507 OA
ATOM     24  H   UNL     1      -0.235  43.872  10.468  1.00  0.00     0.293 HD
ENDBRANCH  19  23
BRANCH  20  25
ATOM     25  C   UNL     1       2.828  38.991  12.383  1.00  0.00     0.072 C 
BRANCH  25  26
ATOM     26  C   UNL     1       1.854  37.762  12.352  1.00  0.00     0.196 C 
BRANCH  26  27
ATOM     27  N   UNL     1       1.063  37.645  11.186  1.00  0.00    -0.341 N 
ATOM     28  C   UNL     1       1.261  37.000  10.064  1.00  0.00     0.242 CG0
ATOM     29  H   UNL     1       0.241  38.088  11.237  1.00  0.00     0.164 HD
ATOM     30  O   UNL     1       2.369  36.510   9.874  1.00  0.00    -0.273 OA
ATOM     31  G   UNL     1       0.197  36.847   9.057  1.00  0.00     0.000 G0
ENDBRANCH  26  27
BRANCH  26  32
ATOM     32  C   UNL     1       1.184  37.499  13.623  1.00  0.00     0.326 C 
ATOM     33  O   UNL     1       1.257  36.439  14.227  1.00  0.00    -0.250 OA
BRANCH  32  34
ATOM     34  O   UNL     1       0.517  38.357  14.191  1.00  0.00    -0.480 OA
ATOM     35  H   UNL     1       0.761  39.203  14.181  1.00  0.00     0.296 HD
ENDBRANCH  32  34
ENDBRANCH  26  32
ENDBRANCH  25  26
ENDBRANCH  20  25
ENDBRANCH  14  17
BRANCH  16  36
ATOM     36  O   UNL     1       0.639  42.673   7.659  1.00  0.00    -0.507 OA
ATOM     37  H   UNL     1       1.384  42.402   7.276  1.00  0.00     0.293 HD
ENDBRANCH  16  36
ENDBRANCH   3  11
ENDBRANCH   1   3
BRANCH   1  38
ATOM     38  C   UNL     1      -3.522  38.346  11.504  1.00  0.00     0.242 C 
ATOM     39  O   UNL     1      -2.434  38.508  12.048  1.00  0.00    -0.273 OA
BRANCH  38  40
ATOM     40  C   UNL     1      -4.369  37.400  12.237  1.00  0.00     0.216 C 
BRANCH  40  41
ATOM     41  N   UNL     1      -5.059  38.027  13.267  1.00  0.00    -0.345 N 
ATOM     42  C   UNL     1      -5.205  37.781  14.535  1.00  0.00     0.242 C 
ATOM     43  H   UNL     1      -5.547  38.768  12.963  1.00  0.00     0.164 HD
ATOM     44  O   UNL     1      -6.042  38.552  14.989  1.00  0.00    -0.273 OA
BRANCH  42  45
ATOM     45  C   UNL     1      -4.621  36.759  15.418  1.00  0.00     0.168 C 
ATOM     46  C   UNL     1      -4.880  36.907  16.942  1.00  0.00     0.041 C 
BRANCH  45  47
ATOM     47  N   UNL     1      -5.171  35.500  15.141  1.00  0.00    -0.343 N 
ATOM     48  C   UNL     1      -4.756  34.271  15.184  1.00  0.00     0.245 C 
ATOM     49  H   UNL     1      -6.054  35.575  14.838  1.00  0.00     0.164 HD
ATOM     50  O   UNL     1      -5.670  33.537  14.832  1.00  0.00    -0.273 OA
BRANCH  48  51
ATOM     51  C   UNL     1      -3.481  33.624  15.513  1.00  0.00     0.199 C 
BRANCH  51  52
ATOM     52  N   UNL     1      -2.370  34.447  15.127  1.00  0.00    -0.332 N 
ATOM     53  C   UNL     1      -2.187  34.730  13.747  1.00  0.00     0.147 C 
BRANCH  52  54
ATOM     54  C   UNL     1      -1.507  34.907  16.022  1.00  0.00     0.219 C 
ATOM     55  O   UNL     1      -1.359  36.116  16.166  1.00  0.00    -0.275 OA
ATOM     56  C   UNL     1      -0.643  34.099  16.865  1.00  0.00     0.114 C 
ENDBRANCH  52  54
ENDBRANCH  51  52
BRANCH  51  57
ATOM     57  C   UNL     1      -3.276  32.107  15.200  1.00  0.00     0.191 C 
BRANCH  57  58
ATOM     58  O   UNL     1      -4.003  31.302  16.125  1.00  0.00    -0.394 OA
ATOM     59  H   UNL     1      -3.705  30.381  15.963  1.00  0.00     0.210 HD
ENDBRANCH  57  58
ENDBRANCH  51  57
ENDBRANCH  48  51
ENDBRANCH  45  47
ENDBRANCH  42  45
ENDBRANCH  40  41
ENDBRANCH  38  40
ENDBRANCH   1  38
TORSDOF 15
ENDMDL
