REMARK SMILES CC(=O)N(C)[C@H](CO)C(=O)N[C@H](C)C(=O)NCC(=O)N(C)[C@@H]1C(=O)N[C@@H](C)C(=O)N[C@H](C(=O)O)Cc2ccc(O)c(c2)-c2cc1ccc2O
REMARK SMILES IDX 20 1 21 2 22 3 23 4 24 5 25 6 26 8 27 9 45 11 44 12 46 13
REMARK SMILES IDX 43 14 47 15 48 16 41 17 42 18 39 19 36 20 38 21 37 22 40 23
REMARK SMILES IDX 35 25 31 26 30 27 28 28 29 30 32 32 33 33 34 34 49 36 18 38
REMARK SMILES IDX 19 39 17 40 16 41 14 42 15 44 12 45 13 46 11 47 9 48 10 50
REMARK SMILES IDX 6 51 4 52 5 53 2 54 3 55 1 56 7 57 8 58
REMARK H PARENT 25 7 40 24 30 29 34 35 49 37 16 43 11 49 8 59
REMARK Flexibility Score: 80.00
ROOT
ATOM      1  N   UNL     1      -1.098  47.549   5.937  1.00  0.00    -0.328 N 
ATOM      2  C   UNL     1      -0.241  47.766   4.831  1.00  0.00     0.148 C 
ENDROOT
BRANCH   1   3
ATOM      3  C   UNL     1      -1.652  46.231   6.131  1.00  0.00     0.204 C 
BRANCH   3   4
ATOM      4  C   UNL     1      -1.073  45.016   5.501  1.00  0.00     0.248 C 
ATOM      5  O   UNL     1      -0.560  44.134   6.180  1.00  0.00    -0.272 OA
ATOM      6  N   UNL     1      -1.132  44.834   4.213  1.00  0.00    -0.342 N 
ATOM      7  H   UNL     1      -1.046  45.625   3.729  1.00  0.00     0.164 HD
BRANCH   6   8
ATOM      8  C   UNL     1      -1.399  43.695   3.418  1.00  0.00     0.168 CG0
ATOM      9  C   UNL     1      -2.385  42.702   4.109  1.00  0.00     0.041 C 
ATOM     10  G   UNL     1      -1.874  44.092   2.081  1.00  0.00     0.000 G0
ENDBRANCH   6   8
ENDBRANCH   3   4
BRANCH   3  11
ATOM     11  C   UNL     1      -3.128  46.215   5.841  1.00  0.00    -0.015 A 
ATOM     12  C   UNL     1      -3.600  46.525   4.544  1.00  0.00     0.019 A 
ATOM     13  C   UNL     1      -4.088  45.833   6.805  1.00  0.00     0.010 A 
ATOM     14  C   UNL     1      -4.932  46.279   4.150  1.00  0.00     0.028 A 
ATOM     15  C   UNL     1      -5.446  45.695   6.463  1.00  0.00     0.047 A 
ATOM     16  C   UNL     1      -5.871  45.890   5.133  1.00  0.00     0.123 A 
BRANCH  14  17
ATOM     17  C   UNL     1      -5.177  46.303   2.755  1.00  0.00     0.027 A 
ATOM     18  C   UNL     1      -4.926  45.099   2.056  1.00  0.00     0.016 A 
ATOM     19  C   UNL     1      -5.504  47.464   2.017  1.00  0.00     0.123 A 
ATOM     20  C   UNL     1      -4.857  45.047   0.647  1.00  0.00    -0.044 A 
ATOM     21  C   UNL     1      -5.524  47.410   0.609  1.00  0.00     0.047 A 
ATOM     22  C   UNL     1      -5.184  46.222  -0.067  1.00  0.00     0.007 A 
BRANCH  19  23
ATOM     23  O   UNL     1      -5.751  48.551   2.601  1.00  0.00    -0.507 OA
ATOM     24  H   UNL     1      -5.944  49.277   2.140  1.00  0.00     0.293 HD
ENDBRANCH  19  23
BRANCH  20  25
ATOM     25  C   UNL     1      -4.422  43.792  -0.028  1.00  0.00     0.072 C 
BRANCH  25  26
ATOM     26  C   UNL     1      -2.883  43.495  -0.092  1.00  0.00     0.196 C 
BRANCH  26  27
ATOM     27  N   UNL     1      -2.254  43.283   1.155  1.00  0.00    -0.341 N 
ATOM     28  C   UNL     1      -1.795  44.122   2.050  1.00  0.00     0.242 CG0
ATOM     29  H   UNL     1      -2.175  42.382   1.395  1.00  0.00     0.164 HD
ATOM     30  O   UNL     1      -1.742  45.309   1.747  1.00  0.00    -0.273 OA
ATOM     31  G   UNL     1      -1.363  43.676   3.385  1.00  0.00     0.000 G0
ENDBRANCH  26  27
BRANCH  26  32
ATOM     32  C   UNL     1      -2.157  44.317  -1.057  1.00  0.00     0.326 C 
ATOM     33  O   UNL     1      -1.174  44.988  -0.779  1.00  0.00    -0.250 OA
BRANCH  32  34
ATOM     34  O   UNL     1      -2.479  44.361  -2.240  1.00  0.00    -0.480 OA
ATOM     35  H   UNL     1      -3.157  43.889  -2.544  1.00  0.00     0.296 HD
ENDBRANCH  32  34
ENDBRANCH  26  32
ENDBRANCH  25  26
ENDBRANCH  20  25
ENDBRANCH  14  17
BRANCH  16  36
ATOM     36  O   UNL     1      -7.075  45.688   4.835  1.00  0.00    -0.507 OA
ATOM     37  H   UNL     1      -7.654  45.433   5.449  1.00  0.00     0.293 HD
ENDBRANCH  16  36
ENDBRANCH   3  11
ENDBRANCH   1   3
BRANCH   1  38
ATOM     38  C   UNL     1      -1.380  48.545   6.798  1.00  0.00     0.242 C 
ATOM     39  O   UNL     1      -1.747  48.261   7.934  1.00  0.00    -0.273 OA
BRANCH  38  40
ATOM     40  C   UNL     1      -1.334  49.995   6.581  1.00  0.00     0.216 C 
BRANCH  40  41
ATOM     41  N   UNL     1      -2.213  50.388   5.578  1.00  0.00    -0.345 N 
ATOM     42  C   UNL     1      -2.083  51.079   4.486  1.00  0.00     0.242 C 
ATOM     43  H   UNL     1      -3.093  50.118   5.757  1.00  0.00     0.164 HD
ATOM     44  O   UNL     1      -3.196  51.278   4.013  1.00  0.00    -0.273 OA
BRANCH  42  45
ATOM     45  C   UNL     1      -0.908  51.668   3.822  1.00  0.00     0.168 C 
ATOM     46  C   UNL     1       0.369  50.789   3.730  1.00  0.00     0.041 C 
BRANCH  45  47
ATOM     47  N   UNL     1      -1.188  51.931   2.474  1.00  0.00    -0.343 N 
ATOM     48  C   UNL     1      -1.479  52.982   1.769  1.00  0.00     0.245 C 
ATOM     49  H   UNL     1      -1.174  51.144   1.964  1.00  0.00     0.164 HD
ATOM     50  O   UNL     1      -1.627  52.641   0.603  1.00  0.00    -0.273 OA
BRANCH  48  51
ATOM     51  C   UNL     1      -1.687  54.402   2.074  1.00  0.00     0.199 C 
BRANCH  51  52
ATOM     52  N   UNL     1      -0.760  55.225   1.351  1.00  0.00    -0.332 N 
ATOM     53  C   UNL     1      -1.180  55.794   0.119  1.00  0.00     0.147 C 
BRANCH  52  54
ATOM     54  C   UNL     1       0.473  55.429   1.793  1.00  0.00     0.219 C 
ATOM     55  O   UNL     1       1.122  54.495   2.250  1.00  0.00    -0.275 OA
ATOM     56  C   UNL     1       1.161  56.708   1.838  1.00  0.00     0.114 C 
ENDBRANCH  52  54
ENDBRANCH  51  52
BRANCH  51  57
ATOM     57  C   UNL     1      -1.908  54.854   3.552  1.00  0.00     0.191 C 
BRANCH  57  58
ATOM     58  O   UNL     1      -2.282  56.229   3.606  1.00  0.00    -0.394 OA
ATOM     59  H   UNL     1      -2.300  56.459   4.559  1.00  0.00     0.210 HD
ENDBRANCH  57  58
ENDBRANCH  51  57
ENDBRANCH  48  51
ENDBRANCH  45  47
ENDBRANCH  42  45
ENDBRANCH  40  41
ENDBRANCH  38  40
ENDBRANCH   1  38
TORSDOF 15
