MODEL 1
REMARK VINA RESULT:    -8.112      0.000      0.000
REMARK INTER + INTRA:         -16.762
REMARK INTER:                 -14.399
REMARK INTRA:                  -2.363
REMARK UNBOUND:                -2.248
WARNING: damped steplength 0.00759438 to 0.00666589
REMARK  Name = /tmp/RJWTFN0
REMARK                            x       y       z     vdW  Elec       q    Type
REMARK                         _______ _______ _______ _____ _____    ______ ____
ROOT
ATOM      1  C   UNK A  3       -0.325  -5.094  -4.919  0.00  0.00    +0.165 C 
ATOM      2  C   UNK A  3        0.955  -5.563  -5.762  0.00  0.00    +0.234 C 
ATOM      3  N   ALA A  4        1.756  -4.495  -6.193  0.00  0.00    -0.304 N 
ATOM      4  H   ALA A  4        1.875  -3.760  -5.550  0.00  0.00    +0.273 HD
ATOM      5  H   UNK A  5        3.798  -1.301  -7.853  0.00  0.00    +0.121 HD
ATOM      6  N   UNK A  5        3.211  -1.867  -7.302  0.00  0.00    -0.307 N 
ATOM      7  C   UNK A  5        2.232  -1.056  -6.523  0.00  0.00    +0.123 C 
ATOM      8  C   UNK A  5        1.352  -0.115  -7.372  0.00  0.00    +0.067 C 
ATOM      9  C   UNK A  3       -3.962  -3.801  -7.341  0.00  0.00    +0.195 C 
ATOM     10  C   UNK A  3       -3.264  -5.160  -7.620  0.00  0.00    +0.163 C 
ATOM     11  O   UNK A  3       -3.798  -5.998  -8.357  0.00  0.00    -0.295 OA
ATOM     12  C   UNK A  3       -1.913  -5.510  -6.968  0.00  0.00    +0.083 C 
ATOM     13  C   UNK A  3       -2.927  -2.771  -6.819  0.00  0.00    +0.059 C 
ATOM     14  C   UNK A  5       -1.958  -2.062  -7.786  0.00  0.00    +0.000 A 
ATOM     15  C   UNK A  5       -2.190  -1.825  -9.148  0.00  0.00    +0.120 A 
ATOM     16  C   UNK A  5       -1.309  -1.050  -9.916  0.00  0.00    -0.018 A 
ATOM     17  C   UNK A  5       -0.155  -0.519  -9.347  0.00  0.00    -0.055 A 
ATOM     18  C   UNK A  5       -0.810  -1.446  -7.235  0.00  0.00    -0.052 A 
ATOM     19  C   UNK A  3       -2.273  -3.440  -5.567  0.00  0.00    +0.017 C 
ATOM     20  C   UNK A  5        0.128  -0.744  -8.004  0.00  0.00    -0.045 A 
ATOM     21  C   ALA A  4        3.499  -3.194  -7.448  0.00  0.00    +0.234 C 
ATOM     22  O   ALA A  4        4.671  -3.449  -7.718  0.00  0.00    -0.274 OA
ATOM     23  CB  ALA A  4        3.050  -5.632  -7.965  0.00  0.00    -0.036 C 
ATOM     24  CA  ALA A  4        2.423  -4.338  -7.454  0.00  0.00    +0.097 C 
ATOM     25  O   UNK A  3        1.025  -6.706  -6.218  0.00  0.00    -0.274 OA
ATOM     26  C   UNK A  3       -1.252  -4.465  -6.033  0.00  0.00    +0.026 C 
ENDROOT
BRANCH   1  28
ATOM     27  C   GLY A  2       -0.742  -4.478  -2.501  0.00  0.00    +0.233 C 
ATOM     28  N   UNK A  3       -0.079  -4.214  -3.696  0.00  0.00    -0.291 N 
ATOM     29  C   UNK A  3        0.878  -3.140  -3.758  0.00  0.00    +0.133 C 
ATOM     30  O   GLY A  2       -1.614  -5.345  -2.412  0.00  0.00    -0.274 OA
BRANCH  27  31
ATOM     31  CA  GLY A  2       -0.343  -3.586  -1.287  0.00  0.00    +0.200 C 
BRANCH  31  33
ATOM     32  C   ALA A  1        1.298  -3.416   0.553  0.00  0.00    +0.233 C 
ATOM     33  N   GLY A  2        0.448  -4.187  -0.237  0.00  0.00    -0.305 N 
ATOM     34  H   GLY A  2        0.384  -5.156  -0.076  0.00  0.00    +0.149 HD
ATOM     35  O   ALA A  1        1.682  -2.289   0.230  0.00  0.00    -0.274 OA
BRANCH  32  36
ATOM     36  CA  ALA A  1        1.782  -4.066   1.896  0.00  0.00    +0.156 C 
ATOM     37  CB  ALA A  1        2.551  -3.070   2.764  0.00  0.00    +0.038 C 
BRANCH  36  39
ATOM     38  C   UNK A  0        3.493  -5.814   1.246  0.00  0.00    +0.236 C 
ATOM     39  N   ALA A  1        2.351  -5.411   1.907  0.00  0.00    -0.303 N 
ATOM     40  H   ALA A  1        1.875  -6.092   2.434  0.00  0.00    +0.149 HD
ATOM     41  O   UNK A  0        4.096  -5.047   0.457  0.00  0.00    -0.274 OA
BRANCH  38  42
ATOM     42  C   UNK A  0        3.814  -7.324   1.307  0.00  0.00    +0.187 C 
BRANCH  42  43
ATOM     43  N   UNK A  0        4.237  -7.850  -0.017  0.00  0.00    -0.291 N 
ATOM     44  C   UNK A  0        3.419  -8.324  -1.044  0.00  0.00    +0.213 C 
ATOM     45  C   UNK A  0        1.934  -8.290  -0.896  0.00  0.00    +0.109 C 
ATOM     46  O   UNK A  0        3.885  -8.747  -2.097  0.00  0.00    -0.276 OA
ATOM     47  C   UNK A  0        5.676  -8.095  -0.162  0.00  0.00    +0.133 C 
ENDBRANCH  42  43
BRANCH  42  48
ATOM     48  C   UNK A  0        4.529  -7.853   2.578  0.00  0.00    +0.187 C 
BRANCH  48  49
ATOM     49  O   UNK A  0        3.731  -8.629   3.460  0.00  0.00    -0.393 OA
ATOM     50  H   UNK A  0        3.630  -9.525   3.101  0.00  0.00    +0.209 HD
ENDBRANCH  48  49
ENDBRANCH  42  48
ENDBRANCH  38  42
ENDBRANCH  36  39
ENDBRANCH  32  36
ENDBRANCH  31  33
ENDBRANCH  27  31
ENDBRANCH   1  28
BRANCH   7  51
ATOM     51  C   UNK A  5        2.981  -0.108  -5.508  0.00  0.00    +0.062 C 
ATOM     52  O   UNK A  5        4.253  -0.239  -5.474  0.00  0.00    -0.548 OA
ATOM     53  O   UNK A  5        2.227   0.624  -4.827  0.00  0.00    -0.548 OA
ENDBRANCH   7  51
BRANCH  15  54
ATOM     54  O   UNK A  5       -3.313  -2.303  -9.754  0.00  0.00    -0.509 OA
ATOM     55  H   UNK A  5       -4.107  -1.805  -9.729  0.00  0.00    +0.236 HD
ENDBRANCH  15  54
BRANCH   9  56
ATOM     56  O   UNK A  3       -5.074  -3.971  -6.410  0.00  0.00    -0.337 OA
BRANCH  56  60
ATOM     57  C   UNK A  3       -6.357  -1.314  -9.940  0.00  0.00    +0.016 C 
ATOM     58  C   UNK A  3       -6.828  -2.266  -8.848  0.00  0.00    +0.149 C 
ATOM     59  O   UNK A  3       -5.918  -2.194  -7.744  0.00  0.00    -0.343 OA
ATOM     60  C   UNK A  3       -6.201  -3.110  -6.669  0.00  0.00    +0.282 C 
ATOM     61  C   UNK A  3       -7.541  -3.871  -6.867  0.00  0.00    +0.201 C 
ATOM     62  C   UNK A  3       -7.584  -4.593  -8.216  0.00  0.00    +0.179 C 
ATOM     63  C   UNK A  3       -6.969  -3.724  -9.334  0.00  0.00    +0.174 C 
BRANCH  61  64
ATOM     64  O   UNK A  3       -7.925  -4.714  -5.781  0.00  0.00    -0.384 OA
ATOM     65  H   UNK A  3       -7.713  -4.276  -4.941  0.00  0.00    +0.210 HD
ENDBRANCH  61  64
BRANCH  62  66
ATOM     66  O   UNK A  3       -6.950  -5.872  -8.120  0.00  0.00    -0.386 OA
ATOM     67  H   UNK A  3       -6.280  -5.954  -8.817  0.00  0.00    +0.210 HD
ENDBRANCH  62  66
BRANCH  63  68
ATOM     68  O   UNK A  3       -5.716  -4.307  -9.719  0.00  0.00    -0.387 OA
ATOM     69  H   UNK A  3       -5.869  -4.985 -10.396  0.00  0.00    +0.210 HD
ENDBRANCH  63  68
ENDBRANCH  56  60
ENDBRANCH   9  56
TORSDOF 16
ENDMDL
MODEL 2
REMARK VINA RESULT:    -8.055      4.363      7.839
REMARK INTER + INTRA:         -16.659
REMARK INTER:                 -14.552
REMARK INTRA:                  -2.107
REMARK UNBOUND:                -2.248
WARNING: damped steplength 0.00759438 to 0.00666589
REMARK  Name = /tmp/RJWTFN0
REMARK                            x       y       z     vdW  Elec       q    Type
REMARK                         _______ _______ _______ _____ _____    ______ ____
ROOT
ATOM      1  C   UNK A  3        6.359  -6.256  -6.085  0.00  0.00    +0.165 C 
ATOM      2  C   UNK A  3        7.569  -6.869  -6.939  0.00  0.00    +0.234 C 
ATOM      3  N   ALA A  4        8.809  -6.287  -6.640  0.00  0.00    -0.304 N 
ATOM      4  H   ALA A  4        8.973  -6.089  -5.690  0.00  0.00    +0.273 HD
ATOM      5  H   UNK A  5       12.341  -4.202  -6.079  0.00  0.00    +0.121 HD
ATOM      6  N   UNK A  5       11.434  -4.573  -5.984  0.00  0.00    -0.307 N 
ATOM      7  C   UNK A  5       10.635  -3.829  -4.968  0.00  0.00    +0.123 C 
ATOM      8  C   UNK A  5       10.521  -2.312  -5.222  0.00  0.00    +0.067 C 
ATOM      9  C   UNK A  3        4.535  -2.393  -7.670  0.00  0.00    +0.195 C 
ATOM     10  C   UNK A  3        4.716  -3.625  -8.598  0.00  0.00    +0.163 C 
ATOM     11  O   UNK A  3        4.187  -3.650  -9.717  0.00  0.00    -0.295 OA
ATOM     12  C   UNK A  3        5.526  -4.853  -8.142  0.00  0.00    +0.083 C 
ATOM     13  C   UNK A  3        5.641  -2.381  -6.583  0.00  0.00    +0.059 C 
ATOM     14  C   UNK A  5        7.071  -1.910  -6.913  0.00  0.00    +0.000 A 
ATOM     15  C   UNK A  5        7.422  -1.010  -7.928  0.00  0.00    +0.120 A 
ATOM     16  C   UNK A  5        8.734  -0.534  -8.064  0.00  0.00    -0.018 A 
ATOM     17  C   UNK A  5        9.737  -0.974  -7.205  0.00  0.00    -0.055 A 
ATOM     18  C   UNK A  5        8.107  -2.275  -6.022  0.00  0.00    -0.052 A 
ATOM     19  C   UNK A  3        5.528  -3.764  -5.864  0.00  0.00    +0.017 C 
ATOM     20  C   UNK A  5        9.442  -1.882  -6.194  0.00  0.00    -0.045 A 
ATOM     21  C   ALA A  4       11.229  -5.636  -6.817  0.00  0.00    +0.234 C 
ATOM     22  O   ALA A  4       12.233  -6.293  -7.087  0.00  0.00    -0.274 OA
ATOM     23  CB  ALA A  4       10.092  -6.987  -8.633  0.00  0.00    -0.036 C 
ATOM     24  CA  ALA A  4        9.870  -5.942  -7.544  0.00  0.00    +0.097 C 
ATOM     25  O   UNK A  3        7.351  -7.548  -7.945  0.00  0.00    -0.274 OA
ATOM     26  C   UNK A  3        6.175  -4.828  -6.735  0.00  0.00    +0.026 C 
ENDROOT
BRANCH   1  28
ATOM     27  C   GLY A  2        5.584  -6.994  -3.792  0.00  0.00    +0.233 C 
ATOM     28  N   UNK A  3        6.492  -6.273  -4.564  0.00  0.00    -0.291 N 
ATOM     29  C   UNK A  3        7.585  -5.589  -3.925  0.00  0.00    +0.133 C 
ATOM     30  O   GLY A  2        4.598  -7.546  -4.284  0.00  0.00    -0.274 OA
BRANCH  27  31
ATOM     31  CA  GLY A  2        5.869  -7.031  -2.261  0.00  0.00    +0.200 C 
BRANCH  31  33
ATOM     32  C   ALA A  1        4.851  -7.130  -0.011  0.00  0.00    +0.233 C 
ATOM     33  N   GLY A  2        4.761  -6.799  -1.361  0.00  0.00    -0.305 N 
ATOM     34  H   GLY A  2        3.931  -6.400  -1.707  0.00  0.00    +0.149 HD
ATOM     35  O   ALA A  1        5.698  -7.907   0.438  0.00  0.00    -0.274 OA
BRANCH  32  36
ATOM     36  CA  ALA A  1        3.788  -6.478   0.939  0.00  0.00    +0.156 C 
ATOM     37  CB  ALA A  1        2.738  -7.490   1.398  0.00  0.00    +0.038 C 
BRANCH  36  39
ATOM     38  C   UNK A  0        3.282  -4.055   1.469  0.00  0.00    +0.236 C 
ATOM     39  N   ALA A  1        3.237  -5.158   0.642  0.00  0.00    -0.303 N 
ATOM     40  H   ALA A  1        2.793  -5.046  -0.229  0.00  0.00    +0.149 HD
ATOM     41  O   UNK A  0        3.722  -4.136   2.642  0.00  0.00    -0.274 OA
BRANCH  38  42
ATOM     42  C   UNK A  0        2.510  -2.809   0.980  0.00  0.00    +0.187 C 
BRANCH  42  43
ATOM     43  N   UNK A  0        1.044  -3.053   0.937  0.00  0.00    -0.291 N 
ATOM     44  C   UNK A  0        0.273  -3.394  -0.174  0.00  0.00    +0.213 C 
ATOM     45  C   UNK A  0        0.922  -3.605  -1.503  0.00  0.00    +0.109 C 
ATOM     46  O   UNK A  0       -0.939  -3.562  -0.091  0.00  0.00    -0.276 OA
ATOM     47  C   UNK A  0        0.313  -2.679   2.151  0.00  0.00    +0.133 C 
ENDBRANCH  42  43
BRANCH  42  48
ATOM     48  C   UNK A  0        3.017  -1.422   1.453  0.00  0.00    +0.187 C 
BRANCH  48  49
ATOM     49  O   UNK A  0        2.605  -0.312   0.669  0.00  0.00    -0.393 OA
ATOM     50  H   UNK A  0        2.270   0.389   1.252  0.00  0.00    +0.209 HD
ENDBRANCH  48  49
ENDBRANCH  42  48
ENDBRANCH  38  42
ENDBRANCH  36  39
ENDBRANCH  32  36
ENDBRANCH  31  33
ENDBRANCH  27  31
ENDBRANCH   1  28
BRANCH   7  51
ATOM     51  C   UNK A  5       11.297  -3.955  -3.542  0.00  0.00    +0.062 C 
ATOM     52  O   UNK A  5       12.068  -2.990  -3.210  0.00  0.00    -0.548 OA
ATOM     53  O   UNK A  5       11.020  -5.014  -2.932  0.00  0.00    -0.548 OA
ENDBRANCH   7  51
BRANCH  15  54
ATOM     54  O   UNK A  5        6.478  -0.530  -8.787  0.00  0.00    -0.509 OA
ATOM     55  H   UNK A  5        6.723  -0.263  -9.650  0.00  0.00    +0.236 HD
ENDBRANCH  15  54
BRANCH   9  56
ATOM     56  O   UNK A  3        3.199  -2.377  -7.084  0.00  0.00    -0.337 OA
BRANCH  56  60
ATOM     57  C   UNK A  3       -1.112  -1.221  -8.200  0.00  0.00    +0.016 C 
ATOM     58  C   UNK A  3        0.089  -0.893  -7.324  0.00  0.00    +0.149 C 
ATOM     59  O   UNK A  3        1.284  -1.306  -7.998  0.00  0.00    -0.343 OA
ATOM     60  C   UNK A  3        2.496  -1.128  -7.241  0.00  0.00    +0.282 C 
ATOM     61  C   UNK A  3        2.263  -0.365  -5.908  0.00  0.00    +0.201 C 
ATOM     62  C   UNK A  3        1.189  -1.041  -5.054  0.00  0.00    +0.179 C 
ATOM     63  C   UNK A  3        0.013  -1.536  -5.923  0.00  0.00    +0.174 C 
BRANCH  61  64
ATOM     64  O   UNK A  3        3.446  -0.066  -5.166  0.00  0.00    -0.384 OA
ATOM     65  H   UNK A  3        3.253  -0.118  -4.216  0.00  0.00    +0.210 HD
ENDBRANCH  61  64
BRANCH  62  66
ATOM     66  O   UNK A  3        1.759  -2.096  -4.272  0.00  0.00    -0.386 OA
ATOM     67  H   UNK A  3        2.021  -1.750  -3.405  0.00  0.00    +0.210 HD
ENDBRANCH  62  66
BRANCH  63  68
ATOM     68  O   UNK A  3        0.057  -2.969  -5.965  0.00  0.00    -0.387 OA
ATOM     69  H   UNK A  3       -0.013  -3.321  -5.064  0.00  0.00    +0.210 HD
ENDBRANCH  63  68
ENDBRANCH  56  60
ENDBRANCH   9  56
TORSDOF 16
ENDMDL
MODEL 3
REMARK VINA RESULT:    -8.049      7.136     17.199
REMARK INTER + INTRA:         -16.649
REMARK INTER:                 -14.255
REMARK INTRA:                  -2.394
REMARK UNBOUND:                -2.248
WARNING: damped steplength 0.00759438 to 0.00666589
REMARK  Name = /tmp/RJWTFN0
REMARK                            x       y       z     vdW  Elec       q    Type
REMARK                         _______ _______ _______ _____ _____    ______ ____
ROOT
ATOM      1  C   UNK A  3        7.637  -7.941   7.386  0.00  0.00    +0.165 C 
ATOM      2  C   UNK A  3        9.011  -7.414   8.020  0.00  0.00    +0.234 C 
ATOM      3  N   ALA A  4       10.147  -8.013   7.456  0.00  0.00    -0.304 N 
ATOM      4  H   ALA A  4       10.118  -8.159   6.483  0.00  0.00    +0.273 HD
ATOM      5  H   UNK A  5       13.422 -10.160   6.114  0.00  0.00    +0.121 HD
ATOM      6  N   UNK A  5       12.529  -9.759   6.216  0.00  0.00    -0.307 N 
ATOM      7  C   UNK A  5       11.521 -10.418   5.337  0.00  0.00    +0.123 C 
ATOM      8  C   UNK A  5       11.398 -11.944   5.529  0.00  0.00    +0.067 C 
ATOM      9  C   UNK A  3        6.002 -11.838   9.091  0.00  0.00    +0.195 C 
ATOM     10  C   UNK A  3        6.405 -10.668  10.029  0.00  0.00    +0.163 C 
ATOM     11  O   UNK A  3        6.102 -10.694  11.229  0.00  0.00    -0.295 OA
ATOM     12  C   UNK A  3        7.160  -9.439   9.489  0.00  0.00    +0.083 C 
ATOM     13  C   UNK A  3        6.877 -11.817   7.811  0.00  0.00    +0.059 C 
ATOM     14  C   UNK A  5        8.324 -12.347   7.832  0.00  0.00    +0.000 A 
ATOM     15  C   UNK A  5        8.828 -13.315   8.712  0.00  0.00    +0.120 A 
ATOM     16  C   UNK A  5       10.122 -13.834   8.566  0.00  0.00    -0.018 A 
ATOM     17  C   UNK A  5       10.958 -13.374   7.553  0.00  0.00    -0.055 A 
ATOM     18  C   UNK A  5        9.184 -11.960   6.778  0.00  0.00    -0.052 A 
ATOM     19  C   UNK A  3        6.682 -10.392   7.201  0.00  0.00    +0.017 C 
ATOM     20  C   UNK A  5       10.510 -12.400   6.667  0.00  0.00    -0.045 A 
ATOM     21  C   ALA A  4       12.528  -8.741   7.127  0.00  0.00    +0.234 C 
ATOM     22  O   ALA A  4       13.590  -8.130   7.231  0.00  0.00    -0.274 OA
ATOM     23  CB  ALA A  4       11.815  -7.467   9.196  0.00  0.00    -0.036 C 
ATOM     24  CA  ALA A  4       11.347  -8.440   8.118  0.00  0.00    +0.097 C 
ATOM     25  O   UNK A  3        9.016  -6.790   9.083  0.00  0.00    -0.274 OA
ATOM     26  C   UNK A  3        7.525  -9.399   7.983  0.00  0.00    +0.026 C 
ENDROOT
BRANCH   1  28
ATOM     27  C   GLY A  2        6.414  -7.120   5.329  0.00  0.00    +0.233 C 
ATOM     28  N   UNK A  3        7.476  -7.839   5.871  0.00  0.00    -0.291 N 
ATOM     29  C   UNK A  3        8.448  -8.440   4.997  0.00  0.00    +0.133 C 
ATOM     30  O   GLY A  2        5.522  -6.638   6.030  0.00  0.00    -0.274 OA
BRANCH  27  31
ATOM     31  CA  GLY A  2        6.399  -6.990   3.777  0.00  0.00    +0.200 C 
BRANCH  31  33
ATOM     32  C   ALA A  1        4.757  -7.031   1.930  0.00  0.00    +0.233 C 
ATOM     33  N   GLY A  2        5.188  -6.512   3.148  0.00  0.00    -0.305 N 
ATOM     34  H   GLY A  2        4.660  -5.808   3.589  0.00  0.00    +0.149 HD
ATOM     35  O   ALA A  1        5.494  -7.660   1.166  0.00  0.00    -0.274 OA
BRANCH  32  36
ATOM     36  CA  ALA A  1        3.262  -6.757   1.545  0.00  0.00    +0.156 C 
ATOM     37  CB  ALA A  1        2.654  -7.920   0.761  0.00  0.00    +0.038 C 
BRANCH  36  39
ATOM     38  C   UNK A  0        2.892  -4.262   1.767  0.00  0.00    +0.236 C 
ATOM     39  N   ALA A  1        2.851  -5.443   1.055  0.00  0.00    -0.303 N 
ATOM     40  H   ALA A  1        2.514  -5.397   0.132  0.00  0.00    +0.149 HD
ATOM     41  O   UNK A  0        3.194  -4.244   2.985  0.00  0.00    -0.274 OA
BRANCH  38  42
ATOM     42  C   UNK A  0        2.277  -3.028   1.070  0.00  0.00    +0.187 C 
BRANCH  42  43
ATOM     43  N   UNK A  0        0.807  -3.171   0.897  0.00  0.00    -0.291 N 
ATOM     44  C   UNK A  0        0.114  -3.440  -0.284  0.00  0.00    +0.213 C 
ATOM     45  C   UNK A  0        0.859  -3.673  -1.557  0.00  0.00    +0.109 C 
ATOM     46  O   UNK A  0       -1.110  -3.526  -0.308  0.00  0.00    -0.276 OA
ATOM     47  C   UNK A  0       -0.000  -2.768   2.052  0.00  0.00    +0.133 C 
ENDBRANCH  42  43
BRANCH  42  48
ATOM     48  C   UNK A  0        2.848  -1.636   1.444  0.00  0.00    +0.187 C 
BRANCH  48  49
ATOM     49  O   UNK A  0        2.593  -0.592   0.516  0.00  0.00    -0.393 OA
ATOM     50  H   UNK A  0        1.915   0.002   0.876  0.00  0.00    +0.209 HD
ENDBRANCH  48  49
ENDBRANCH  42  48
ENDBRANCH  38  42
ENDBRANCH  36  39
ENDBRANCH  32  36
ENDBRANCH  31  33
ENDBRANCH  27  31
ENDBRANCH   1  28
BRANCH   7  51
ATOM     51  C   UNK A  5       11.901 -10.228   3.818  0.00  0.00    +0.062 C 
ATOM     52  O   UNK A  5       12.009 -11.308   3.141  0.00  0.00    -0.548 OA
ATOM     53  O   UNK A  5       12.098  -9.039   3.476  0.00  0.00    -0.548 OA
ENDBRANCH   7  51
BRANCH  15  54
ATOM     54  O   UNK A  5        8.048 -13.817   9.711  0.00  0.00    -0.509 OA
ATOM     55  H   UNK A  5        7.230 -14.225   9.507  0.00  0.00    +0.236 HD
ENDBRANCH  15  54
BRANCH   9  56
ATOM     56  O   UNK A  3        4.578 -11.782   8.775  0.00  0.00    -0.337 OA
BRANCH  56  60
ATOM     57  C   UNK A  3        4.867 -15.576  11.361  0.00  0.00    +0.016 C 
ATOM     58  C   UNK A  3        3.936 -14.647  10.594  0.00  0.00    +0.149 C 
ATOM     59  O   UNK A  3        4.666 -14.036   9.523  0.00  0.00    -0.343 OA
ATOM     60  C   UNK A  3        3.922 -13.066   8.761  0.00  0.00    +0.282 C 
ATOM     61  C   UNK A  3        2.422 -13.010   9.165  0.00  0.00    +0.201 C 
ATOM     62  C   UNK A  3        2.253 -12.763  10.666  0.00  0.00    +0.179 C 
ATOM     63  C   UNK A  3        3.285 -13.567  11.485  0.00  0.00    +0.174 C 
BRANCH  61  64
ATOM     64  O   UNK A  3        1.614 -12.141   8.372  0.00  0.00    -0.384 OA
ATOM     65  H   UNK A  3        0.765 -11.991   8.819  0.00  0.00    +0.210 HD
ENDBRANCH  61  64
BRANCH  62  66
ATOM     66  O   UNK A  3        2.313 -11.363  10.954  0.00  0.00    -0.386 OA
ATOM     67  H   UNK A  3        1.979 -11.203  11.851  0.00  0.00    +0.210 HD
ENDBRANCH  62  66
BRANCH  63  68
ATOM     68  O   UNK A  3        4.240 -12.647  12.032  0.00  0.00    -0.387 OA
ATOM     69  H   UNK A  3        5.138 -12.951  11.824  0.00  0.00    +0.210 HD
ENDBRANCH  63  68
ENDBRANCH  56  60
ENDBRANCH   9  56
TORSDOF 16
ENDMDL
MODEL 4
REMARK VINA RESULT:    -7.989      4.336      7.693
REMARK INTER + INTRA:         -16.542
REMARK INTER:                 -14.495
REMARK INTRA:                  -2.046
REMARK UNBOUND:                -2.248
WARNING: damped steplength 0.00759438 to 0.00666589
REMARK  Name = /tmp/RJWTFN0
REMARK                            x       y       z     vdW  Elec       q    Type
REMARK                         _______ _______ _______ _____ _____    ______ ____
ROOT
ATOM      1  C   UNK A  3        6.213  -6.214  -5.691  0.00  0.00    +0.165 C 
ATOM      2  C   UNK A  3        7.321  -6.848  -6.659  0.00  0.00    +0.234 C 
ATOM      3  N   ALA A  4        8.602  -6.308  -6.463  0.00  0.00    -0.304 N 
ATOM      4  H   ALA A  4        8.855  -6.132  -5.529  0.00  0.00    +0.273 HD
ATOM      5  H   UNK A  5       12.233  -4.341  -6.191  0.00  0.00    +0.121 HD
ATOM      6  N   UNK A  5       11.327  -4.686  -6.021  0.00  0.00    -0.307 N 
ATOM      7  C   UNK A  5       10.646  -3.937  -4.926  0.00  0.00    +0.123 C 
ATOM      8  C   UNK A  5       10.557  -2.412  -5.146  0.00  0.00    +0.067 C 
ATOM      9  C   UNK A  3        4.378  -2.271  -7.048  0.00  0.00    +0.195 C 
ATOM     10  C   UNK A  3        4.435  -3.491  -8.007  0.00  0.00    +0.163 C 
ATOM     11  O   UNK A  3        3.808  -3.480  -9.074  0.00  0.00    -0.295 OA
ATOM     12  C   UNK A  3        5.244  -4.750  -7.644  0.00  0.00    +0.083 C 
ATOM     13  C   UNK A  3        5.575  -2.311  -6.065  0.00  0.00    +0.059 C 
ATOM     14  C   UNK A  5        6.985  -1.877  -6.514  0.00  0.00    +0.000 A 
ATOM     15  C   UNK A  5        7.271  -0.970  -7.544  0.00  0.00    +0.120 A 
ATOM     16  C   UNK A  5        8.581  -0.532  -7.790  0.00  0.00    -0.018 A 
ATOM     17  C   UNK A  5        9.642  -1.017  -7.031  0.00  0.00    -0.055 A 
ATOM     18  C   UNK A  5        8.084  -2.289  -5.726  0.00  0.00    -0.052 A 
ATOM     19  C   UNK A  3        5.483  -3.703  -5.359  0.00  0.00    +0.017 C 
ATOM     20  C   UNK A  5        9.410  -1.933  -6.011  0.00  0.00    -0.045 A 
ATOM     21  C   ALA A  4       11.015  -5.728  -6.847  0.00  0.00    +0.234 C 
ATOM     22  O   ALA A  4       11.970  -6.409  -7.216  0.00  0.00    -0.274 OA
ATOM     23  CB  ALA A  4        9.679  -7.011  -8.574  0.00  0.00    -0.036 C 
ATOM     24  CA  ALA A  4        9.588  -5.979  -7.453  0.00  0.00    +0.097 C 
ATOM     25  O   UNK A  3        6.993  -7.502  -7.651  0.00  0.00    -0.274 OA
ATOM     26  C   UNK A  3        6.017  -4.770  -6.300  0.00  0.00    +0.026 C 
ENDROOT
BRANCH   1  28
ATOM     27  C   GLY A  2        5.564  -6.872  -3.335  0.00  0.00    +0.233 C 
ATOM     28  N   UNK A  3        6.480  -6.262  -4.188  0.00  0.00    -0.291 N 
ATOM     29  C   UNK A  3        7.703  -5.724  -3.653  0.00  0.00    +0.133 C 
ATOM     30  O   GLY A  2        4.476  -7.293  -3.734  0.00  0.00    -0.274 OA
BRANCH  27  31
ATOM     31  CA  GLY A  2        5.980  -6.958  -1.837  0.00  0.00    +0.200 C 
BRANCH  31  33
ATOM     32  C   ALA A  1        5.280  -7.634   0.435  0.00  0.00    +0.233 C 
ATOM     33  N   GLY A  2        4.952  -7.257  -0.865  0.00  0.00    -0.305 N 
ATOM     34  H   GLY A  2        4.005  -7.192  -1.126  0.00  0.00    +0.149 HD
ATOM     35  O   ALA A  1        6.397  -8.047   0.757  0.00  0.00    -0.274 OA
BRANCH  32  36
ATOM     36  CA  ALA A  1        4.134  -7.534   1.501  0.00  0.00    +0.156 C 
ATOM     37  CB  ALA A  1        2.839  -8.179   1.005  0.00  0.00    +0.038 C 
BRANCH  36  39
ATOM     38  C   UNK A  0        3.706  -5.048   1.706  0.00  0.00    +0.236 C 
ATOM     39  N   ALA A  1        3.922  -6.298   2.249  0.00  0.00    -0.303 N 
ATOM     40  H   ALA A  1        3.934  -6.363   3.231  0.00  0.00    +0.149 HD
ATOM     41  O   UNK A  0        3.790  -4.849   0.470  0.00  0.00    -0.274 OA
BRANCH  38  42
ATOM     42  C   UNK A  0        3.641  -3.875   2.709  0.00  0.00    +0.187 C 
BRANCH  42  43
ATOM     43  N   UNK A  0        2.629  -2.863   2.307  0.00  0.00    -0.291 N 
ATOM     44  C   UNK A  0        2.736  -1.474   2.395  0.00  0.00    +0.213 C 
ATOM     45  C   UNK A  0        3.996  -0.848   2.896  0.00  0.00    +0.109 C 
ATOM     46  O   UNK A  0        1.825  -0.733   2.040  0.00  0.00    -0.276 OA
ATOM     47  C   UNK A  0        1.302  -3.398   1.991  0.00  0.00    +0.133 C 
ENDBRANCH  42  43
BRANCH  42  48
ATOM     48  C   UNK A  0        3.794  -4.212   4.215  0.00  0.00    +0.187 C 
BRANCH  48  49
ATOM     49  O   UNK A  0        4.907  -5.025   4.558  0.00  0.00    -0.393 OA
ATOM     50  H   UNK A  0        5.235  -5.476   3.763  0.00  0.00    +0.209 HD
ENDBRANCH  48  49
ENDBRANCH  42  48
ENDBRANCH  38  42
ENDBRANCH  36  39
ENDBRANCH  32  36
ENDBRANCH  31  33
ENDBRANCH  27  31
ENDBRANCH   1  28
BRANCH   7  51
ATOM     51  C   UNK A  5       11.428  -4.108  -3.567  0.00  0.00    +0.062 C 
ATOM     52  O   UNK A  5       11.989  -5.245  -3.398  0.00  0.00    -0.548 OA
ATOM     53  O   UNK A  5       11.360  -3.119  -2.800  0.00  0.00    -0.548 OA
ENDBRANCH   7  51
BRANCH  15  54
ATOM     54  O   UNK A  5        6.270  -0.448  -8.307  0.00  0.00    -0.509 OA
ATOM     55  H   UNK A  5        5.924   0.400  -8.108  0.00  0.00    +0.236 HD
ENDBRANCH  15  54
BRANCH   9  56
ATOM     56  O   UNK A  3        3.100  -2.225  -6.344  0.00  0.00    -0.337 OA
BRANCH  56  60
ATOM     57  C   UNK A  3       -0.461  -0.894  -8.937  0.00  0.00    +0.016 C 
ATOM     58  C   UNK A  3        0.214  -0.781  -7.576  0.00  0.00    +0.149 C 
ATOM     59  O   UNK A  3        1.622  -0.988  -7.737  0.00  0.00    -0.343 OA
ATOM     60  C   UNK A  3        2.376  -0.989  -6.509  0.00  0.00    +0.282 C 
ATOM     61  C   UNK A  3        1.513  -0.597  -5.277  0.00  0.00    +0.201 C 
ATOM     62  C   UNK A  3        0.275  -1.487  -5.151  0.00  0.00    +0.179 C 
ATOM     63  C   UNK A  3       -0.358  -1.763  -6.531  0.00  0.00    +0.174 C 
BRANCH  61  64
ATOM     64  O   UNK A  3        2.230  -0.478  -4.048  0.00  0.00    -0.384 OA
ATOM     65  H   UNK A  3        3.170  -0.664  -4.204  0.00  0.00    +0.210 HD
ENDBRANCH  61  64
BRANCH  62  66
ATOM     66  O   UNK A  3        0.595  -2.697  -4.457  0.00  0.00    -0.386 OA
ATOM     67  H   UNK A  3        0.073  -2.750  -3.641  0.00  0.00    +0.210 HD
ENDBRANCH  62  66
BRANCH  63  68
ATOM     68  O   UNK A  3       -0.120  -3.137  -6.869  0.00  0.00    -0.387 OA
ATOM     69  H   UNK A  3       -0.155  -3.243  -7.833  0.00  0.00    +0.210 HD
ENDBRANCH  63  68
ENDBRANCH  56  60
ENDBRANCH   9  56
TORSDOF 16
ENDMDL
MODEL 5
REMARK VINA RESULT:    -7.932      3.745      6.966
REMARK INTER + INTRA:         -16.440
REMARK INTER:                 -13.359
REMARK INTRA:                  -3.081
REMARK UNBOUND:                -2.248
WARNING: damped steplength 0.00759438 to 0.00666589
REMARK  Name = /tmp/RJWTFN0
REMARK                            x       y       z     vdW  Elec       q    Type
REMARK                         _______ _______ _______ _____ _____    ______ ____
ROOT
ATOM      1  C   UNK A  3        5.328  -6.597  -6.139  0.00  0.00    +0.165 C 
ATOM      2  C   UNK A  3        6.331  -6.978  -7.330  0.00  0.00    +0.234 C 
ATOM      3  N   ALA A  4        7.563  -6.312  -7.252  0.00  0.00    -0.304 N 
ATOM      4  H   ALA A  4        7.941  -6.212  -6.349  0.00  0.00    +0.273 HD
ATOM      5  H   UNK A  5       10.968  -3.959  -7.252  0.00  0.00    +0.121 HD
ATOM      6  N   UNK A  5       10.140  -4.429  -6.999  0.00  0.00    -0.307 N 
ATOM      7  C   UNK A  5        9.566  -3.895  -5.731  0.00  0.00    +0.123 C 
ATOM      8  C   UNK A  5        9.285  -2.378  -5.738  0.00  0.00    +0.067 C 
ATOM      9  C   UNK A  3        2.903  -2.781  -6.699  0.00  0.00    +0.195 C 
ATOM     10  C   UNK A  3        2.936  -3.870  -7.805  0.00  0.00    +0.163 C 
ATOM     11  O   UNK A  3        2.151  -3.817  -8.761  0.00  0.00    -0.295 OA
ATOM     12  C   UNK A  3        3.918  -5.054  -7.728  0.00  0.00    +0.083 C 
ATOM     13  C   UNK A  3        4.238  -2.784  -5.911  0.00  0.00    +0.059 C 
ATOM     14  C   UNK A  5        5.507  -2.134  -6.498  0.00  0.00    +0.000 A 
ATOM     15  C   UNK A  5        5.532  -1.089  -7.433  0.00  0.00    +0.120 A 
ATOM     16  C   UNK A  5        6.734  -0.470  -7.805  0.00  0.00    -0.018 A 
ATOM     17  C   UNK A  5        7.946  -0.903  -7.276  0.00  0.00    -0.055 A 
ATOM     18  C   UNK A  5        6.753  -2.494  -5.936  0.00  0.00    -0.052 A 
ATOM     19  C   UNK A  3        4.403  -4.247  -5.385  0.00  0.00    +0.017 C 
ATOM     20  C   UNK A  5        7.973  -1.949  -6.359  0.00  0.00    -0.045 A 
ATOM     21  C   ALA A  4        9.812  -5.402  -7.900  0.00  0.00    +0.234 C 
ATOM     22  O   ALA A  4       10.763  -5.916  -8.486  0.00  0.00    -0.274 OA
ATOM     23  CB  ALA A  4        8.362  -6.638  -9.568  0.00  0.00    -0.036 C 
ATOM     24  CA  ALA A  4        8.341  -5.756  -8.323  0.00  0.00    +0.097 C 
ATOM     25  O   UNK A  3        5.920  -7.553  -8.341  0.00  0.00    -0.274 OA
ATOM     26  C   UNK A  3        4.890  -5.129  -6.522  0.00  0.00    +0.026 C 
ENDROOT
BRANCH   1  28
ATOM     27  C   GLY A  2        5.065  -7.482  -3.783  0.00  0.00    +0.233 C 
ATOM     28  N   UNK A  3        5.832  -6.780  -4.709  0.00  0.00    -0.291 N 
ATOM     29  C   UNK A  3        7.123  -6.273  -4.326  0.00  0.00    +0.133 C 
ATOM     30  O   GLY A  2        3.929  -7.883  -4.042  0.00  0.00    -0.274 OA
BRANCH  27  31
ATOM     31  CA  GLY A  2        5.715  -7.700  -2.384  0.00  0.00    +0.200 C 
BRANCH  31  33
ATOM     32  C   ALA A  1        4.505  -6.826  -0.414  0.00  0.00    +0.233 C 
ATOM     33  N   GLY A  2        4.837  -7.888  -1.252  0.00  0.00    -0.305 N 
ATOM     34  H   GLY A  2        4.467  -8.782  -1.070  0.00  0.00    +0.149 HD
ATOM     35  O   ALA A  1        5.153  -5.777  -0.367  0.00  0.00    -0.274 OA
BRANCH  32  36
ATOM     36  CA  ALA A  1        3.256  -7.031   0.511  0.00  0.00    +0.156 C 
ATOM     37  CB  ALA A  1        2.209  -7.935  -0.140  0.00  0.00    +0.038 C 
BRANCH  36  39
ATOM     38  C   UNK A  0        2.077  -4.797   0.682  0.00  0.00    +0.236 C 
ATOM     39  N   ALA A  1        2.681  -5.904   1.242  0.00  0.00    -0.303 N 
ATOM     40  H   ALA A  1        2.730  -5.939   2.224  0.00  0.00    +0.149 HD
ATOM     41  O   UNK A  0        2.076  -4.611  -0.558  0.00  0.00    -0.274 OA
BRANCH  38  42
ATOM     42  C   UNK A  0        1.667  -3.678   1.667  0.00  0.00    +0.187 C 
BRANCH  42  43
ATOM     43  N   UNK A  0        2.793  -2.746   1.938  0.00  0.00    -0.291 N 
ATOM     44  C   UNK A  0        3.698  -2.794   3.000  0.00  0.00    +0.213 C 
ATOM     45  C   UNK A  0        3.628  -3.903   3.997  0.00  0.00    +0.109 C 
ATOM     46  O   UNK A  0        4.586  -1.957   3.128  0.00  0.00    -0.276 OA
ATOM     47  C   UNK A  0        2.807  -1.529   1.121  0.00  0.00    +0.133 C 
ENDBRANCH  42  43
BRANCH  42  48
ATOM     48  C   UNK A  0        0.237  -3.095   1.532  0.00  0.00    +0.187 C 
BRANCH  48  49
ATOM     49  O   UNK A  0       -0.298  -3.065   0.217  0.00  0.00    -0.393 OA
ATOM     50  H   UNK A  0       -0.287  -2.153  -0.116  0.00  0.00    +0.209 HD
ENDBRANCH  48  49
ENDBRANCH  42  48
ENDBRANCH  38  42
ENDBRANCH  36  39
ENDBRANCH  32  36
ENDBRANCH  31  33
ENDBRANCH  27  31
ENDBRANCH   1  28
BRANCH   7  51
ATOM     51  C   UNK A  5       10.565  -4.120  -4.532  0.00  0.00    +0.062 C 
ATOM     52  O   UNK A  5       10.760  -5.341  -4.203  0.00  0.00    -0.548 OA
ATOM     53  O   UNK A  5       11.007  -3.066  -4.018  0.00  0.00    -0.548 OA
ENDBRANCH   7  51
BRANCH  15  54
ATOM     54  O   UNK A  5        4.375  -0.611  -7.971  0.00  0.00    -0.509 OA
ATOM     55  H   UNK A  5        3.941   0.119  -7.574  0.00  0.00    +0.236 HD
ENDBRANCH  15  54
BRANCH   9  56
ATOM     56  O   UNK A  3        1.754  -2.970  -5.819  0.00  0.00    -0.337 OA
BRANCH  56  60
ATOM     57  C   UNK A  3       -2.811  -2.426  -6.008  0.00  0.00    +0.016 C 
ATOM     58  C   UNK A  3       -1.516  -1.962  -5.354  0.00  0.00    +0.149 C 
ATOM     59  O   UNK A  3       -0.434  -2.159  -6.271  0.00  0.00    -0.343 OA
ATOM     60  C   UNK A  3        0.868  -1.835  -5.747  0.00  0.00    +0.282 C 
ATOM     61  C   UNK A  3        0.801  -1.178  -4.340  0.00  0.00    +0.201 C 
ATOM     62  C   UNK A  3        0.021  -2.048  -3.351  0.00  0.00    +0.179 C 
ATOM     63  C   UNK A  3       -1.223  -2.673  -4.016  0.00  0.00    +0.174 C 
BRANCH  61  64
ATOM     64  O   UNK A  3        2.054  -0.739  -3.816  0.00  0.00    -0.384 OA
ATOM     65  H   UNK A  3        2.642  -0.495  -4.548  0.00  0.00    +0.210 HD
ENDBRANCH  61  64
BRANCH  62  66
ATOM     66  O   UNK A  3        0.876  -3.039  -2.772  0.00  0.00    -0.386 OA
ATOM     67  H   UNK A  3        0.959  -3.790  -3.381  0.00  0.00    +0.210 HD
ENDBRANCH  62  66
BRANCH  63  68
ATOM     68  O   UNK A  3       -0.990  -4.080  -4.172  0.00  0.00    -0.387 OA
ATOM     69  H   UNK A  3       -0.595  -4.434  -3.360  0.00  0.00    +0.210 HD
ENDBRANCH  63  68
ENDBRANCH  56  60
ENDBRANCH   9  56
TORSDOF 16
ENDMDL
