WARNING: damped steplength 0.00759438 to 0.00666589
REMARK  Name = /tmp/RJWTFN0
REMARK                            x       y       z     vdW  Elec       q    Type
REMARK                         _______ _______ _______ _____ _____    ______ ____
ROOT
ATOM      1  C   UNK A  3       -0.025  -9.807  -8.925  0.00  0.00    +0.165 C 
ATOM      2  C   UNK A  3        1.544 -10.095  -9.081  0.00  0.00    +0.234 C 
ATOM      3  N   ALA A  4        2.154 -10.506  -7.887  0.00  0.00    -0.304 N 
ATOM      4  H   ALA A  4        1.629 -11.120  -7.325  0.00  0.00    +0.273 HD
ATOM      5  H   UNK A  5        3.989 -11.228  -4.248  0.00  0.00    +0.121 HD
ATOM      6  N   UNK A  5        3.332 -11.113  -4.971  0.00  0.00    -0.307 N 
ATOM      7  C   UNK A  5        1.938 -11.040  -4.447  0.00  0.00    +0.123 C 
ATOM      8  C   UNK A  5        1.703  -9.939  -3.391  0.00  0.00    +0.067 C 
ATOM      9  C   UNK A  3       -1.161  -5.690  -7.336  0.00  0.00    +0.195 C 
ATOM     10  C   UNK A  3       -0.182  -5.837  -8.533  0.00  0.00    +0.163 C 
ATOM     11  O   UNK A  3        0.144  -4.848  -9.201  0.00  0.00    -0.295 OA
ATOM     12  C   UNK A  3        0.381  -7.213  -8.936  0.00  0.00    +0.083 C 
ATOM     13  C   UNK A  3       -1.036  -6.915  -6.395  0.00  0.00    +0.059 C 
ATOM     14  C   UNK A  5        0.139  -7.038  -5.405  0.00  0.00    +0.000 A 
ATOM     15  C   UNK A  5        0.862  -5.969  -4.858  0.00  0.00    +0.120 A 
ATOM     16  C   UNK A  5        1.825  -6.171  -3.859  0.00  0.00    -0.018 A 
ATOM     17  C   UNK A  5        2.112  -7.455  -3.404  0.00  0.00    -0.055 A 
ATOM     18  C   UNK A  5        0.415  -8.315  -4.863  0.00  0.00    -0.052 A 
ATOM     19  C   UNK A  3       -1.295  -8.161  -7.303  0.00  0.00    +0.017 C 
ATOM     20  C   UNK A  5        1.434  -8.550  -3.930  0.00  0.00    -0.045 A 
ATOM     21  C   ALA A  4        3.929 -11.060  -6.199  0.00  0.00    +0.234 C 
ATOM     22  O   ALA A  4        4.981 -11.689  -6.297  0.00  0.00    -0.274 OA
ATOM     23  CB  ALA A  4        4.521 -10.089  -8.461  0.00  0.00    -0.036 C 
ATOM     24  CA  ALA A  4        3.447 -10.143  -7.379  0.00  0.00    +0.097 C 
ATOM     25  O   UNK A  3        2.163  -9.696 -10.070  0.00  0.00    -0.274 OA
ATOM     26  C   UNK A  3       -0.040  -8.454  -8.109  0.00  0.00    +0.026 C 
ENDROOT
BRANCH   1  28
ATOM     27  C   GLY A  2       -0.438 -12.243  -8.379  0.00  0.00    +0.233 C 
ATOM     28  N   UNK A  3       -0.893 -10.926  -8.355  0.00  0.00    -0.291 N 
ATOM     29  C   UNK A  3       -2.160 -10.622  -7.744  0.00  0.00    +0.133 C 
ATOM     30  O   GLY A  2        0.610 -12.565  -8.943  0.00  0.00    -0.274 OA
BRANCH  27  31
ATOM     31  CA  GLY A  2       -1.352 -13.293  -7.681  0.00  0.00    +0.200 C 
BRANCH  31  33
ATOM     32  C   ALA A  1       -2.194 -13.271  -5.357  0.00  0.00    +0.233 C 
ATOM     33  N   GLY A  2       -2.276 -12.823  -6.673  0.00  0.00    -0.305 N 
ATOM     34  H   GLY A  2       -2.975 -12.175  -6.921  0.00  0.00    +0.149 HD
ATOM     35  O   ALA A  1       -1.584 -14.292  -5.029  0.00  0.00    -0.274 OA
BRANCH  32  36
ATOM     36  CA  ALA A  1       -2.948 -12.416  -4.281  0.00  0.00    +0.156 C 
ATOM     37  CB  ALA A  1       -2.008 -11.936  -3.175  0.00  0.00    +0.038 C 
BRANCH  36  39
ATOM     38  C   UNK A  0       -5.165 -13.624  -4.468  0.00  0.00    +0.236 C 
ATOM     39  N   ALA A  1       -4.262 -12.829  -3.793  0.00  0.00    -0.303 N 
ATOM     40  H   ALA A  1       -4.527 -12.510  -2.901  0.00  0.00    +0.149 HD
ATOM     41  O   UNK A  0       -4.964 -13.978  -5.655  0.00  0.00    -0.274 OA
BRANCH  38  42
ATOM     42  C   UNK A  0       -6.543 -13.809  -3.793  0.00  0.00    +0.187 C 
BRANCH  42  43
ATOM     43  N   UNK A  0       -6.715 -15.188  -3.266  0.00  0.00    -0.291 N 
ATOM     44  C   UNK A  0       -6.051 -15.775  -2.188  0.00  0.00    +0.213 C 
ATOM     45  C   UNK A  0       -5.072 -14.981  -1.388  0.00  0.00    +0.109 C 
ATOM     46  O   UNK A  0       -6.270 -16.933  -1.849  0.00  0.00    -0.276 OA
ATOM     47  C   UNK A  0       -7.509 -16.085  -4.111  0.00  0.00    +0.133 C 
ENDBRANCH  42  43
BRANCH  42  48
ATOM     48  C   UNK A  0       -7.098 -12.623  -2.963  0.00  0.00    +0.187 C 
BRANCH  48  49
ATOM     49  O   UNK A  0       -6.240 -12.122  -1.948  0.00  0.00    -0.393 OA
ATOM     50  H   UNK A  0       -6.085 -12.813  -1.285  0.00  0.00    +0.209 HD
ENDBRANCH  48  49
ENDBRANCH  42  48
ENDBRANCH  38  42
ENDBRANCH  36  39
ENDBRANCH  32  36
ENDBRANCH  31  33
ENDBRANCH  27  31
ENDBRANCH   1  28
BRANCH   7  51
ATOM     51  C   UNK A  5        1.545 -12.386  -3.726  0.00  0.00    +0.062 C 
ATOM     52  O   UNK A  5        1.459 -12.319  -2.451  0.00  0.00    -0.548 OA
ATOM     53  O   UNK A  5        1.414 -13.368  -4.493  0.00  0.00    -0.548 OA
ENDBRANCH   7  51
BRANCH  15  54
ATOM     54  O   UNK A  5        0.610  -4.688  -5.251  0.00  0.00    -0.509 OA
ATOM     55  H   UNK A  5       -0.027  -4.519  -5.916  0.00  0.00    +0.236 HD
ENDBRANCH  15  54
BRANCH   9  56
ATOM     56  O   UNK A  3       -2.530  -5.505  -7.807  0.00  0.00    -0.337 OA
BRANCH  56  60
ATOM     57  C   UNK A  3       -1.504  -2.267  -4.704  0.00  0.00    +0.016 C 
ATOM     58  C   UNK A  3       -2.400  -2.644  -5.876  0.00  0.00    +0.149 C 
ATOM     59  O   UNK A  3       -2.543  -4.069  -5.912  0.00  0.00    -0.343 OA
ATOM     60  C   UNK A  3       -3.304  -4.571  -7.027  0.00  0.00    +0.282 C 
ATOM     61  C   UNK A  3       -3.953  -3.437  -7.868  0.00  0.00    +0.201 C 
ATOM     62  C   UNK A  3       -2.912  -2.420  -8.340  0.00  0.00    +0.179 C 
ATOM     63  C   UNK A  3       -1.880  -2.121  -7.231  0.00  0.00    +0.174 C 
BRANCH  61  64
ATOM     64  O   UNK A  3       -4.807  -3.878  -8.924  0.00  0.00    -0.384 OA
ATOM     65  H   UNK A  3       -4.281  -4.348  -9.590  0.00  0.00    +0.210 HD
ENDBRANCH  61  64
BRANCH  62  66
ATOM     66  O   UNK A  3       -2.287  -2.866  -9.548  0.00  0.00    -0.386 OA
ATOM     67  H   UNK A  3       -1.825  -3.702  -9.384  0.00  0.00    +0.210 HD
ENDBRANCH  62  66
BRANCH  63  68
ATOM     68  O   UNK A  3       -0.628  -2.709  -7.612  0.00  0.00    -0.387 OA
ATOM     69  H   UNK A  3       -0.741  -3.666  -7.724  0.00  0.00    +0.210 HD
ENDBRANCH  63  68
ENDBRANCH  56  60
ENDBRANCH   9  56
TORSDOF 16
